TAG2011 - FLAV1 - Escafosídeo
  DSViewer          3D                             0

 68 72  0  0  0  0  0  0  0  0999 V2000
   -2.2538    7.7065    2.1410 C   0  0
   -3.4287    7.0924    1.9638 C   0  0
   -3.5180    5.6341    1.8949 C   0  0
   -2.4022    4.9209    2.0689 C   0  0
   -1.1133    5.5948    2.2842 C   0  0
   -1.0464    6.9171    2.3154 C   0  0
    0.1528    7.5487    2.5251 O   0  0
    0.1130    4.8364    2.4480 C   0  0
    1.3422    5.5475    2.6792 C   0  0
    1.3222    6.8771    2.7148 C   0  0
    3.6836    9.7708    3.2902 C   0  0
    2.4699    8.9733    3.0270 C   0  0
    2.5438    7.6480    2.9641 C   0  0
    3.8379    6.9832    3.1535 C   0  0
    4.9337    7.7031    3.3874 C   0  0
    4.8557    9.1622    3.4611 C   0  0
    6.0049    9.9207    3.7123 O   0  0
    0.1206    3.6050    2.3747 O   0  0
   -2.4285    3.5775    2.0531 O   0  0
   -4.5744    7.8102    1.8604 O   0  0
   -6.1698    2.2495    4.2209 O   0  0
   -6.3908    1.8905    2.8577 C   0  0
   -6.3578    3.1527    2.0357 C   0  0  1  0  0  0
   -5.0825    3.7576    2.3007 O   0  0
   -4.9062    4.9828    1.6054 C   0  0  2  0  0  0
   -4.9966    4.6636    0.0755 C   0  0  2  0  0  0
   -4.8314    5.8284   -0.6405 O   0  0
   -6.4009    4.0576   -0.2749 C   0  0  1  0  0  0
   -6.5357    3.7455   -1.6897 O   0  0
   -6.5238    2.8038    0.5211 C   0  0  2  0  0  0
   -7.7944    2.2125    0.2395 O   0  0
    0.6607   10.7861    1.2602 O   0  0
   -0.4986   11.4985    1.6396 C   0  0  2  0  0  0
   -0.8998   11.0474    3.0500 C   0  0
   -1.0832    9.6236    3.0450 O   0  0
   -2.1390    9.2187    2.1512 C   0  0  1  0  0  0
   -1.7629    9.6548    0.6954 C   0  0  1  0  0  0
   -2.7836    9.2680   -0.2209 O   0  0
   -1.5796   11.1725    0.6464 C   0  0  2  0  0  0
   -1.1710   11.6234   -0.6820 O   0  0
    2.2402    5.0173    2.8225 H   0  0
    3.6274   10.8308    3.3473 H   0  0
    1.5250    9.4538    2.8884 H   0  0
    3.9096    5.9237    3.1054 H   0  0
    5.8635    7.2137    3.5228 H   0  0
    6.7988    9.3253    3.8183 H   0  0
   -1.5007    3.2523    2.2165 H   0  0
   -4.3672    8.7573    1.9479 H   0  0
   -6.1995    1.4256    4.8117 H   0  0
   -5.5813    1.2288    2.5234 H   0  0
   -7.3551    1.3876    2.7370 H   0  0
   -7.1615    3.8396    2.3533 H   0  0
   -5.7042    5.7013    1.8523 H   0  0
   -4.1960    3.9575   -0.1868 H   0  0
   -5.6017    6.4600   -0.4845 H   0  0
   -7.1886    4.7594    0.0137 H   0  0
   -5.8115    3.1203   -1.9457 H   0  0
   -5.7230    2.1107    0.2235 H   0  0
   -7.8740    1.3784    0.7254 H   0  0
    1.4124   11.0329    1.8802 H   0  0
   -0.3115   12.5880    1.6357 H   0  0
   -0.0889   11.3005    3.7547 H   0  0
   -1.8288   11.5546    3.3595 H   0  0
   -3.0945    9.6864    2.4196 H   0  0
   -0.8207    9.1597    0.4207 H   0  0
   -3.6191    9.7971   -0.0502 H   0  0
   -2.5111   11.6774    0.9309 H   0  0
   -0.2995   11.1996   -0.9418 H   0  0
  1  2  2  0  0  0
  2  3  1  0  0  0
  3  4  2  0  0  0
  4  5  1  0  0  0
  5  6  2  0  0  0
  1  6  1  0  0  0
  8  9  1  0  0  0
  7 10  1  0  0  0
  5  8  1  0  0  0
  7  6  1  0  0  0
 11 12  1  0  0  0
 12 13  2  0  0  0
 13 14  1  0  0  0
 14 15  2  0  0  0
 15 16  1  0  0  0
 11 16  2  0  0  0
 10 13  1  0  0  0
  9 10  2  0  0  0
 16 17  1  0  0  0
  8 18  2  0  0  0
  4 19  1  0  0  0
  2 20  1  0  0  0
 21 22  1  0  0  0
 23 22  1  0  0  0
 23 24  1  0  0  0
 24 25  1  0  0  0
 25 26  1  0  0  0
 26 27  1  0  0  0
 26 28  1  0  0  0
 28 29  1  0  0  0
 28 30  1  0  0  0
 23 30  1  0  0  0
 30 31  1  0  0  0
 25  3  1  0  0  0
 33 32  1  0  0  0
 33 34  1  0  0  0
 34 35  1  0  0  0
 35 36  1  0  0  0
 36 37  1  0  0  0
 37 38  1  0  0  0
 37 39  1  0  0  0
 33 39  1  0  0  0
 39 40  1  0  0  0
 36  1  1  0  0  0
  9 41  1  0  0  0
 11 42  1  0  0  0
 12 43  1  0  0  0
 14 44  1  0  0  0
 15 45  1  0  0  0
 17 46  1  0  0  0
 19 47  1  0  0  0
 20 48  1  0  0  0
 21 49  1  0  0  0
 22 50  1  0  0  0
 22 51  1  0  0  0
 23 52  1  0  0  0
 25 53  1  0  0  0
 26 54  1  0  0  0
 27 55  1  0  0  0
 28 56  1  0  0  0
 29 57  1  0  0  0
 30 58  1  0  0  0
 31 59  1  0  0  0
 32 60  1  0  0  0
 33 61  1  0  0  0
 34 62  1  0  0  0
 34 63  1  0  0  0
 36 64  1  0  0  0
 37 65  1  0  0  0
 38 66  1  0  0  0
 39 67  1  0  0  0
 40 68  1  0  0  0
M  END
> <Clean Energy>
-0.092013

$$$$
TAG2011 - FLAV1 - Isoescafosídeo
  DSViewer          3D                             0

 68 72  0  0  0  0  0  0  0  0999 V2000
   -3.9533    0.8811   -2.2955 C   0  0
   -2.9995    1.3172   -3.1318 C   0  0
   -2.5809    2.6815   -3.1428 C   0  0
   -3.1921    3.5589   -2.3519 C   0  0
   -4.2566    3.1195   -1.4484 C   0  0
   -4.6149    1.8427   -1.4103 C   0  0
   -8.5584   -0.2073    1.9420 C   0  0
   -7.5262    0.3982    1.0893 C   0  0
   -7.3061    1.7094    1.1336 C   0  0
   -8.0981    2.5526    2.0395 C   0  0
   -9.0362    2.0046    2.8113 C   0  0
   -9.2783    0.5576    2.7598 C   0  0
   -5.6060    1.4337   -0.5683 O   0  0
   -4.9224    4.0602   -0.5689 C   0  0
   -5.9667    3.5780    0.3005 C   0  0
   -6.2696    2.2784    0.2718 C   0  0
  -10.2583   -0.0255    3.5625 O   0  0
   -4.5760    5.2449   -0.5348 O   0  0
   -2.8447    4.8591   -2.3709 O   0  0
   -2.4034    0.4954   -4.0291 O   0  0
    0.5941    5.7208   -3.7033 O   0  0
    0.7790    4.7958   -4.7549 C   0  0  2  0  0  0
   -0.5268    4.7348   -5.5501 C   0  0
   -1.6095    4.3645   -4.6588 O   0  0
   -1.4276    3.0580   -4.0759 C   0  0  1  0  0  0
   -0.1042    3.0734   -3.2323 C   0  0  1  0  0  0
    0.1323    1.8052   -2.6518 O   0  0
    1.0955    3.4449   -4.1567 C   0  0  2  0  0  0
    2.3480    3.5277   -3.3965 O   0  0
   -8.3631   -1.2969   -2.6515 O   0  0
   -7.6383   -2.1323   -1.7373 C   0  0
   -6.1659   -2.0840   -2.0566 C   0  0  1  0  0  0
   -5.7581   -0.7151   -1.9859 O   0  0
   -4.3685   -0.5870   -2.2957 C   0  0  2  0  0  0
   -3.5504   -1.3878   -1.2161 C   0  0  2  0  0  0
   -2.2101   -1.2861   -1.4816 O   0  0
   -3.9423   -2.8747   -1.2798 C   0  0  1  0  0  0
   -3.2210   -3.6905   -0.2860 O   0  0
   -5.4081   -2.9383   -1.0109 C   0  0  2  0  0  0
   -5.8027   -4.2790   -1.0856 O   0  0
   -8.7338   -1.2553    1.9083 H   0  0
   -6.9479   -0.2106    0.4314 H   0  0
   -7.9291    3.5984    2.0825 H   0  0
   -9.6056    2.6168    3.4618 H   0  0
   -6.4694    4.2394    0.9497 H   0  0
  -10.7101    0.6682    4.1166 H   0  0
   -3.4393    5.3489   -1.7322 H   0  0
   -2.7708   -0.4175   -3.9547 H   0  0
   -0.2140    5.4401   -3.1740 H   0  0
    1.6001    5.1076   -5.4085 H   0  0
   -0.7374    5.7242   -5.9704 H   0  0
   -0.4323    4.0030   -6.3706 H   0  0
   -1.3217    2.2975   -4.8642 H   0  0
   -0.1951    3.8229   -2.4358 H   0  0
    1.0395    1.8307   -2.1791 H   0  0
    1.1991    2.7036   -4.9567 H   0  0
    2.2486    4.2294   -2.6990 H   0  0
   -8.4007   -1.6569   -3.6003 H   0  0
   -7.7817   -1.7446   -0.7186 H   0  0
   -8.0027   -3.1657   -1.7882 H   0  0
   -5.9776   -2.4689   -3.0720 H   0  0
   -4.1363   -1.0200   -3.2780 H   0  0
   -3.7567   -0.9812   -0.2218 H   0  0
   -1.7218   -1.8502   -0.7971 H   0  0
   -3.7324   -3.2600   -2.2865 H   0  0
   -3.4856   -4.6605   -0.3464 H   0  0
   -5.6165   -2.5458    0.0004 H   0  0
   -5.3005   -4.8033   -0.4102 H   0  0
  1  2  2  0  0  0
  2  3  1  0  0  0
  3  4  2  0  0  0
  4  5  1  0  0  0
  5  6  2  0  0  0
  1  6  1  0  0  0
  7  8  1  0  0  0
  8  9  2  0  0  0
  9 10  1  0  0  0
 10 11  2  0  0  0
 11 12  1  0  0  0
  7 12  2  0  0  0
 14 15  1  0  0  0
 13 16  1  0  0  0
  5 14  1  0  0  0
 13  6  1  0  0  0
 15 16  2  0  0  0
 16  9  1  0  0  0
 12 17  1  0  0  0
 14 18  2  0  0  0
  4 19  1  0  0  0
  2 20  1  0  0  0
 22 21  1  0  0  0
 22 23  1  0  0  0
 23 24  1  0  0  0
 24 25  1  0  0  0
 25 26  1  0  0  0
 26 27  1  0  0  0
 26 28  1  0  0  0
 22 28  1  0  0  0
 28 29  1  0  0  0
 25  3  1  0  0  0
 30 31  1  0  0  0
 32 31  1  0  0  0
 32 33  1  0  0  0
 33 34  1  0  0  0
 34 35  1  0  0  0
 35 36  1  0  0  0
 35 37  1  0  0  0
 37 38  1  0  0  0
 37 39  1  0  0  0
 32 39  1  0  0  0
 39 40  1  0  0  0
 34  1  1  0  0  0
  7 41  1  0  0  0
  8 42  1  0  0  0
 10 43  1  0  0  0
 11 44  1  0  0  0
 15 45  1  0  0  0
 17 46  1  0  0  0
 19 47  1  0  0  0
 20 48  1  0  0  0
 21 49  1  0  0  0
 22 50  1  0  0  0
 23 51  1  0  0  0
 23 52  1  0  0  0
 25 53  1  0  0  0
 26 54  1  0  0  0
 27 55  1  0  0  0
 28 56  1  0  0  0
 29 57  1  0  0  0
 30 58  1  0  0  0
 31 59  1  0  0  0
 31 60  1  0  0  0
 32 61  1  0  0  0
 34 62  1  0  0  0
 35 63  1  0  0  0
 36 64  1  0  0  0
 37 65  1  0  0  0
 38 66  1  0  0  0
 39 67  1  0  0  0
 40 68  1  0  0  0
M  END
> <Clean Energy>
-23.8724

$$$$
TAG2011 - FLAV1 - Neoescafosídeo
  SciTegic12132405553D

 68 72  0  0  0  0            999 V2000
   -1.3389   11.9617    9.2172 C   0  0
   -2.3352   11.1133    9.4805 C   0  0
   -2.2121    9.6812    9.1648 C   0  0
   -1.0497    9.1860    8.7223 C   0  0
    0.0735   10.0523    8.5056 C   0  0
   -0.0155   11.3581    8.7203 C   0  0
    1.0963   12.1356    8.4944 O   0  0
    1.3095    9.4883    7.9946 C   0  0
    2.4353   10.3612    7.7576 C   0  0
    2.2990   11.6575    8.0177 C   0  0
    4.4188   14.8220    7.8429 C   0  0
    3.2974   13.8960    8.0581 C   0  0
    3.4329   12.5965    7.7955 C   0  0
    4.7162   12.1041    7.2874 C   0  0
    5.7311   12.9425    7.0920 C   0  0
    5.5799   14.3646    7.3825 C   0  0
    6.6475   15.2455    7.1798 O   0  0
    1.3890    8.2894    7.7273 O   0  0
   -0.8711    7.8556    8.4354 O   0  0
   -3.5196   11.5877   10.0682 O   0  0
   -3.4554    5.5613   11.1933 O   0  0
   -4.0969    5.3629    9.9242 C   0  0
   -4.4933    6.7475    9.4883 C   0  0  1  0  0  0
   -3.2512    7.4881    9.4823 O   0  0
   -3.4790    8.8441    9.2282 C   0  0  2  0  0  0
   -4.1060    8.9773    7.7861 C   0  0  2  0  0  0
   -4.3213   10.3559    7.4993 O   0  0
   -5.4747    8.2072    7.7214 C   0  0  1  0  0  0
   -6.0992    8.2834    6.3923 O   0  0
   -5.1861    6.7668    8.0719 C   0  0  2  0  0  0
   -6.4399    6.0284    8.0281 O   0  0
   -2.0122   16.1050    7.0822 O   0  0
   -1.7177   14.7405    6.7428 C   0  0  2  0  0  0
   -2.8139   13.8094    7.2878 C   0  0
   -2.8846   13.8938    8.7624 O   0  0
   -1.6277   13.5237    9.4464 C   0  0  2  0  0  0
   -0.5336   14.4923    8.9425 C   0  0  1  0  0  0
    0.6857   14.2073    9.6012 O   0  0
   -0.3971   14.3392    7.3969 C   0  0  2  0  0  0
    0.6438   15.1625    6.9565 O   0  0
    3.3414    9.9773    7.3898 H   0  0
    4.3043   15.8582    8.0562 H   0  0
    2.3782   14.2647    8.4228 H   0  0
    4.8396   11.0816    7.0745 H   0  0
    6.6536   12.5716    6.7245 H   0  0
    7.4422   14.7531    6.8354 H   0  0
   -1.6619    7.3517    8.6389 H   0  0
   -4.1422   10.8351   10.2759 H   0  0
   -3.1284    4.6705   11.5752 H   0  0
   -3.3876    4.9375    9.2014 H   0  0
   -4.9782    4.7201   10.0102 H   0  0
   -5.1734    7.1830   10.2356 H   0  0
   -4.1820    9.2703    9.9571 H   0  0
   -3.3986    8.5574    7.0567 H   0  0
   -5.0211   10.7051    8.1253 H   0  0
   -6.1580    8.6321    8.4641 H   0  0
   -6.9837    7.7829    6.3522 H   0  0
   -4.4906    6.3314    7.3310 H   0  0
   -7.1519    6.4069    8.6290 H   0  0
   -2.1289   16.1616    8.0639 H   0  0
   -1.6537   14.6378    5.6480 H   0  0
   -3.7751   14.1032    6.8516 H   0  0
   -2.5884   12.7662    7.0008 H   0  0
   -1.7935   13.6629   10.5240 H   0  0
   -0.8121   15.5344    9.1644 H   0  0
    0.5810   14.3849   10.5918 H   0  0
   -0.1494   13.2977    7.1413 H   0  0
    0.4154   16.1021    7.1765 H   0  0
  1  2  2  0
  2  3  1  0
  3  4  2  0
  4  5  1  0
  5  6  2  0
  1  6  1  0
  8  9  1  0
  7 10  1  0
  5  8  1  0
  7  6  1  0
 11 12  1  0
 12 13  2  0
 13 14  1  0
 14 15  2  0
 15 16  1  0
 11 16  2  0
 10 13  1  0
  9 10  2  0
 16 17  1  0
  8 18  2  0
  4 19  1  0
  2 20  1  0
 21 22  1  0
 23 22  1  0
 23 24  1  0
 25 24  1  0
 26 25  1  0
 26 27  1  0
 26 28  1  0
 28 29  1  0
 28 30  1  0
 30 23  1  0
 30 31  1  0
 25  3  1  0
 33 32  1  0
 33 34  1  0
 34 35  1  0
 35 36  1  0
 36 37  1  0
 37 38  1  0
 37 39  1  0
 33 39  1  0
 39 40  1  0
 36  1  1  0
  9 41  1  0
 11 42  1  0
 12 43  1  0
 14 44  1  0
 15 45  1  0
 17 46  1  0
 19 47  1  0
 20 48  1  0
 21 49  1  0
 22 50  1  0
 22 51  1  0
 23 52  1  0
 25 53  1  0
 26 54  1  0
 27 55  1  0
 28 56  1  0
 29 57  1  0
 30 58  1  0
 31 59  1  0
 32 60  1  0
 33 61  1  0
 34 62  1  0
 34 63  1  0
 36 64  1  0
 37 65  1  0
 38 66  1  0
 39 67  1  0
 40 68  1  0
M  END
> <Name>
TAG2011 - FLAV1 - Neoescafosídeo

> <Clean Energy>
7.54779720306396

$$$$
TAG2011 - FLAV1 - Neoisoescafosídeo
  SciTegic12132405553D

 68 72  0  0  0  0            999 V2000
   -4.7132    3.3884    3.4966 C   0  0
   -4.6467    4.6198    3.9632 C   0  0
   -3.9996    4.9400    5.2646 C   0  0
   -3.5738    3.8912    5.9876 C   0  0
   -3.6417    2.5258    5.4438 C   0  0
   -4.1953    2.2841    4.2620 C   0  0
   -4.7332   -2.8740    2.1477 C   0  0
   -4.6389   -1.5662    2.8071 C   0  0
   -3.7233   -1.3577    3.7526 C   0  0
   -2.7991   -2.4364    4.1228 C   0  0
   -2.8680   -3.6150    3.5049 C   0  0
   -3.8861   -3.8456    2.4721 C   0  0
   -4.2522    1.0227    3.7695 O   0  0
   -3.0306    1.4391    6.1683 C   0  0
   -3.0302    0.1133    5.5766 C   0  0
   -3.6563   -0.0499    4.4028 C   0  0
   -3.9776   -5.0764    1.8266 O   0  0
   -2.4227    1.6867    7.2147 O   0  0
   -3.0747    4.0498    7.2306 O   0  0
   -5.1969    5.5773    3.1439 O   0  0
   -7.5103    0.4392    1.1397 O   0  0
   -6.5136    0.5552    0.1596 C   0  0
   -6.0527    1.9211    0.3694 C   0  0  1  0  0  0
   -5.6291    1.9413    1.7583 O   0  0
   -5.2517    3.2475    2.1011 C   0  0  2  0  0  0
   -4.0772    3.6798    1.1564 C   0  0  2  0  0  0
   -3.6531    4.9659    1.3720 O   0  0
   -4.5117    3.6906   -0.2108 C   0  0  1  0  0  0
   -3.4361    4.1677   -0.9589 O   0  0
   -4.8931    2.3252   -0.5693 C   0  0  2  0  0  0
   -5.2587    2.3490   -1.8958 O   0  0
   -1.4084    9.0115    5.0162 O   0  0
   -1.3845    7.6405    4.5132 C   0  0  2  0  0  0
   -2.6288    7.2718    3.6834 C   0  0
   -3.8718    7.3532    4.5230 O   0  0
   -3.8677    6.4814    5.7214 C   0  0  2  0  0  0
   -2.5908    6.9423    6.5541 C   0  0  1  0  0  0
   -2.3952    6.2928    7.7995 O   0  0
   -1.3478    6.7306    5.7225 C   0  0  2  0  0  0
   -0.2919    7.1023    6.4702 O   0  0
   -5.4775   -3.0486    1.4083 H   0  0
   -5.3142   -0.7845    2.5419 H   0  0
   -2.0604   -2.2747    4.8661 H   0  0
   -2.1886   -4.3844    3.7629 H   0  0
   -2.5633   -0.6986    6.0675 H   0  0
   -3.2808   -5.6991    2.1686 H   0  0
   -2.8530    3.1804    7.6487 H   0  0
   -5.0896    6.4877    3.5400 H   0  0
   -7.1153    0.8479    1.9710 H   0  0
   -5.6835   -0.1402    0.3586 H   0  0
   -6.9090    0.4032   -0.8515 H   0  0
   -6.8952    2.6175    0.2244 H   0  0
   -6.0791    3.9593    1.9398 H   0  0
   -3.2263    3.0014    1.2773 H   0  0
   -3.2687    5.0833    2.2559 H   0  0
   -5.3646    4.3700   -0.3339 H   0  0
   -2.6629    3.5587   -0.8491 H   0  0
   -4.0428    1.6493   -0.4269 H   0  0
   -5.5054    1.4714   -2.1766 H   0  0
   -0.5802    9.1635    5.5851 H   0  0
   -0.4793    7.5066    3.9116 H   0  0
   -2.7025    7.9521    2.8160 H   0  0
   -2.5240    6.2299    3.3219 H   0  0
   -4.7559    6.6957    6.3213 H   0  0
   -2.6853    8.0217    6.7827 H   0  0
   -2.2141    5.3737    7.6971 H   0  0
   -1.2587    5.6727    5.4532 H   0  0
   -0.2917    6.5350    7.3067 H   0  0
  1  2  2  0
  2  3  1  0
  3  4  2  0
  4  5  1  0
  5  6  2  0
  1  6  1  0
  7  8  1  0
  8  9  2  0
  9 10  1  0
 10 11  2  0
 11 12  1  0
  7 12  2  0
 14 15  1  0
 13 16  1  0
  5 14  1  0
 13  6  1  0
 15 16  2  0
 16  9  1  0
 12 17  1  0
 14 18  2  0
  4 19  1  0
  2 20  1  0
 21 22  1  0
 23 22  1  0
 23 24  1  0
 25 24  1  0
 26 25  1  0
 26 27  1  0
 26 28  1  0
 28 29  1  0
 28 30  1  0
 30 23  1  0
 30 31  1  0
 25  1  1  0
 33 32  1  0
 33 34  1  0
 34 35  1  0
 35 36  1  0
 36 37  1  0
 37 38  1  0
 37 39  1  0
 33 39  1  0
 39 40  1  0
 36  3  1  0
  7 41  1  0
  8 42  1  0
 10 43  1  0
 11 44  1  0
 15 45  1  0
 17 46  1  0
 19 47  1  0
 20 48  1  0
 21 49  1  0
 22 50  1  0
 22 51  1  0
 23 52  1  0
 25 53  1  0
 26 54  1  0
 27 55  1  0
 28 56  1  0
 29 57  1  0
 30 58  1  0
 31 59  1  0
 32 60  1  0
 33 61  1  0
 34 62  1  0
 34 63  1  0
 36 64  1  0
 37 65  1  0
 38 66  1  0
 39 67  1  0
 40 68  1  0
M  END
> <Name>
TAG2011 - FLAV1 - Neoisoescafosídeo

> <Clean Energy>
6.03727

$$$$
SKVB2009_2
  SciTegic12132405553D

 52 55  0  0  0  0            999 V2000
   -3.8660    0.4604    1.0596 C   0  0
   -3.9569   -0.6266    0.1003 C   0  0
   -2.5750   -1.5317    0.3426 C   0  0  1  0  0  0
   -1.2355   -0.5858    0.7904 C   0  0  2  0  0  0
   -1.3036    0.6933   -0.0774 C   0  0  1  0  0  0
   -2.6004    1.4443    0.5787 C   0  0
    0.2234   -1.3122    0.8975 C   0  0
    0.9546   -1.1272   -0.4014 C   0  0
    1.3085    0.5241   -0.4325 C   0  0  2  0  0  0
    0.0360    1.4778    0.1224 C   0  0  1  0  0  0
   -2.6803   -2.4778    1.5706 C   0  0
   -1.5187    0.4804   -1.7544 C   0  0
    2.0567    1.1824   -1.7246 C   0  0
    2.4709    2.6212   -1.0205 C   0  0  1  0  0  0
    1.2949    3.6014   -0.7301 C   0  0
    0.0342    2.8187   -0.6429 C   0  0
    2.9052    2.1172    0.2839 C   0  0
    2.5284    0.7730    0.5120 C   0  0
    3.5960    2.8358    1.1656 C   0  0
   -2.4237   -2.4448   -0.8605 C   0  0
   -1.4712   -3.2277   -0.9359 O   0  0
   -3.3724   -2.4115   -1.8736 O   0  0
   -4.7744    1.0724    1.1388 H   0  0
   -3.6632   -0.0029    2.0303 H   0  0
   -3.9637   -0.1102   -0.8551 H   0  0
   -4.8373   -1.2802    0.1599 H   0  0
   -1.4005   -0.2415    1.8211 H   0  0
   -2.3189    1.8657    1.5529 H   0  0
   -2.8764    2.2655   -0.0960 H   0  0
    0.8388   -0.7798    1.6057 H   0  0
    0.1030   -2.3377    1.2617 H   0  0
    1.8947   -1.6864   -0.4925 H   0  0
    0.2702   -1.4447   -1.1863 H   0  0
    0.1211    1.5707    1.2149 H   0  0
   -2.8249   -1.8847    2.4834 H   0  0
   -1.7681   -3.0749    1.6663 H   0  0
   -3.5372   -3.1505    1.4316 H   0  0
   -1.6023    1.4532   -2.2427 H   0  0
   -2.4191   -0.0616   -1.9792 H   0  0
   -0.6909   -0.0561   -2.2015 H   0  0
    2.9616    0.5844   -1.8959 H   0  0
    1.4822    1.2664   -2.6588 H   0  0
    3.2627    3.2162   -1.4945 H   0  0
    1.5554    4.2368    0.1253 H   0  0
    1.0862    4.2323   -1.6041 H   0  0
   -0.7850    3.4698   -0.3139 H   0  0
   -0.1378    2.5772   -1.6786 H   0  0
    2.3522    0.5423    1.5696 H   0  0
    3.3607    0.1516    0.1568 H   0  0
    3.8592    3.8389    0.9428 H   0  0
    3.8824    2.4042    2.0903 H   0  0
   -3.1290   -3.0661   -2.5724 H   0  0
 20 21  2  0
 20 22  1  0
  3 20  1  0
  1  2  1  0
  2  3  1  0
  3  4  1  0
  4  5  1  0
  5  6  1  0
  6  1  1  0
  4  7  1  0
  7  8  1  0
  8  9  1  0
  9 10  1  0
 10  5  1  0
  3 11  1  0
  5 12  1  0
  9 13  1  0
 13 14  1  0
 14 15  1  0
 15 16  1  0
 16 10  1  0
 14 17  1  0
  9 18  1  0
 18 17  1  0
 17 19  2  0
  1 23  1  0
  1 24  1  0
  2 25  1  0
  2 26  1  0
  4 27  1  0
  6 28  1  0
  6 29  1  0
  7 30  1  0
  7 31  1  0
  8 32  1  0
  8 33  1  0
 10 34  1  0
 11 35  1  0
 11 36  1  0
 11 37  1  0
 12 38  1  0
 12 39  1  0
 12 40  1  0
 13 41  1  0
 13 42  1  0
 14 43  1  0
 15 44  1  0
 15 45  1  0
 16 46  1  0
 16 47  1  0
 18 48  1  0
 18 49  1  0
 19 50  1  0
 19 51  1  0
 22 52  1  0
M  END
> <Name>
SKVB2009_2

> <Clean Energy>
263.198

$$$$
SKVB2009_4
  SciTegic12132405553D

 69 73  0  0  0  0            999 V2000
   -6.7246    1.6685    0.8827 C   0  0
   -7.1160    0.5561    0.0360 C   0  0
   -5.9537   -0.6130    0.2974 C   0  0  1  0  0  0
   -4.4124    0.0424    0.5880 C   0  0  2  0  0  0
   -4.2537    1.2231   -0.3880 C   0  0  1  0  0  0
   -5.3082    2.2986    0.2528 C   0  0
   -3.1535   -0.9781    0.6881 C   0  0
   -2.4794   -1.0744   -0.6476 C   0  0
   -1.7443    0.4437   -0.8267 C   0  0  2  0  0  0
   -2.7611    1.7011   -0.3167 C   0  0  1  0  0  0
   -6.1797   -1.4080    1.6142 C   0  0
   -4.6222    0.9272   -2.0272 C   0  0
   -0.9729    0.8187   -2.2135 C   0  0
   -0.2362    2.2068   -1.6852 C   0  0  1  0  0  0
   -1.1626    3.4324   -1.4442 C   0  0
   -2.5364    2.9410   -1.2135 C   0  0
    0.1872    1.7723   -0.3548 C   0  0
   -0.3774    0.5478    0.0624 C   0  0  2  0  0  0
    1.0548    2.4454    0.3976 C   0  0
    0.6760   -0.4207   -0.3205 O   0  0
    0.7822   -1.7045    0.3215 C   0  0
   -0.0060   -2.1044    1.4986 C   0  0
    1.6311   -2.4952   -0.1036 O   0  0
    0.1510   -3.3226    2.0158 C   0  0
   -0.6255   -3.7773    3.1898 C   0  0
   -1.6322   -2.9153    3.8455 C   0  0
   -2.3112   -3.3670    4.8972 C   0  0
   -2.0631   -4.7148    5.4065 C   0  0
   -1.1578   -5.4935    4.8182 C   0  0
   -0.4085   -5.0035    3.6605 C   0  0
   -6.0887   -1.6326   -0.8194 C   0  0
   -5.3392   -2.6135   -0.8651 O   0  0
   -7.0728   -1.4698   -1.7850 O   0  0
   -7.4684    2.4739    0.9458 H   0  0
   -6.5647    1.2524    1.8823 H   0  0
   -8.1125    0.1244    0.1986 H   0  0
   -7.0730    0.9808   -0.9629 H   0  0
   -4.4269    0.4971    1.5887 H   0  0
   -4.8774    2.7238    1.1690 H   0  0
   -5.4404    3.1032   -0.4828 H   0  0
   -2.3823   -0.5375    1.3058 H   0  0
   -3.4687   -1.9162    1.1569 H   0  0
   -1.7115   -1.8463   -0.7326 H   0  0
   -3.2645   -1.2769   -1.3711 H   0  0
   -2.5919    1.8666    0.7574 H   0  0
   -6.1283   -0.7248    2.4725 H   0  0
   -5.4160   -2.1849    1.7226 H   0  0
   -7.1705   -1.8804    1.5814 H   0  0
   -4.5236    1.8500   -2.6018 H   0  0
   -5.6323    0.5841   -2.1575 H   0  0
   -3.9625    0.1850   -2.4587 H   0  0
   -0.2229    0.0350   -2.3741 H   0  0
   -1.5848    0.9381   -3.1197 H   0  0
    0.6198    2.5798   -2.2628 H   0  0
   -0.7206    4.0810   -0.6787 H   0  0
   -1.3038    4.0050   -2.3701 H   0  0
   -3.1821    3.7761   -0.9161 H   0  0
   -2.8194    2.6499   -2.2095 H   0  0
   -0.5108    0.5023    1.1494 H   0  0
    1.4696    3.3557    0.0453 H   0  0
    1.3306    2.0690    1.3494 H   0  0
   -0.6870   -1.4353    1.9276 H   0  0
    0.8476   -3.9869    1.5717 H   0  0
   -1.8205   -1.9377    3.4838 H   0  0
   -3.0336   -2.7483    5.3661 H   0  0
   -2.6049   -5.0725    6.2451 H   0  0
   -0.9795   -6.4709    5.1889 H   0  0
    0.3108   -5.6273    3.1938 H   0  0
   -7.0272   -2.2176   -2.4291 H   0  0
 31 32  2  0
 31 33  1  0
  3 31  1  0
  1  2  1  0
  2  3  1  0
  3  4  1  0
  4  5  1  0
  5  6  1  0
  6  1  1  0
  4  7  1  0
  7  8  1  0
  8  9  1  0
  9 10  1  0
 10  5  1  0
  3 11  1  0
  5 12  1  0
  9 13  1  0
 13 14  1  0
 14 15  1  0
 15 16  1  0
 16 10  1  0
 14 17  1  0
  9 18  1  0
 18 17  1  0
 17 19  2  0
 18 20  1  0
 20 21  1  0
 21 22  1  0
 21 23  2  0
 22 24  2  0
 24 25  1  0
 25 26  1  0
 26 27  2  0
 27 28  1  0
 28 29  2  0
 29 30  1  0
 30 25  2  0
  1 34  1  0
  1 35  1  0
  2 36  1  0
  2 37  1  0
  4 38  1  0
  6 39  1  0
  6 40  1  0
  7 41  1  0
  7 42  1  0
  8 43  1  0
  8 44  1  0
 10 45  1  0
 11 46  1  0
 11 47  1  0
 11 48  1  0
 12 49  1  0
 12 50  1  0
 12 51  1  0
 13 52  1  0
 13 53  1  0
 14 54  1  0
 15 55  1  0
 15 56  1  0
 16 57  1  0
 16 58  1  0
 18 59  1  0
 19 60  1  0
 19 61  1  0
 22 62  1  0
 24 63  1  0
 26 64  1  0
 27 65  1  0
 28 66  1  0
 29 67  1  0
 30 68  1  0
 33 69  1  0
M  END
> <Name>
SKVB2009_4

> <Clean Energy>
270.53

$$$$
SKVB2009_33
  SciTegic12132405553D

 17 18  0  0  0  0            999 V2000
   -2.8418    0.4764   -0.5224 C   0  0
   -2.8071   -0.9847   -0.5923 C   0  0
   -1.6472   -1.6295   -0.4832 C   0  0
   -0.4056   -0.8790   -0.2933 C   0  0
   -0.4400    0.4545   -0.2297 C   0  0
   -1.7134    1.1611   -0.3496 C   0  0
    0.7802   -1.5551   -0.1826 O   0  0
    1.9518   -0.8854   -0.0053 C   0  0
    1.9460    0.5671    0.0678 C   0  0
    0.7913    1.2133   -0.0406 C   0  0
    3.0148   -1.5080    0.0931 O   0  0
   -3.7656    0.9898   -0.6093 H   0  0
   -3.7059   -1.5303   -0.7300 H   0  0
   -1.6230   -2.6883   -0.5341 H   0  0
   -1.7377    2.2199   -0.2988 H   0  0
    2.8511    1.1024    0.2056 H   0  0
    0.7634    2.2721    0.0097 H   0  0
  1  2  1  0
  2  3  2  0
  3  4  1  0
  4  5  2  0
  5  6  1  0
  6  1  2  0
  4  7  1  0
  7  8  1  0
  8  9  1  0
  9 10  2  0
 10  5  1  0
  8 11  2  0
  1 12  1  0
  2 13  1  0
  3 14  1  0
  6 15  1  0
  9 16  1  0
 10 17  1  0
M  END
> <Name>
SKVB2009_33

> <Clean Energy>
-2.30859

$$$$
SKVB2009_34
  SciTegic12132405553D

 78 81  0  0  0  0            999 V2000
   -6.5950   -2.6235    0.7968 C   0  0
   -6.5389   -3.6351   -0.3778 C   0  0  1  0  0  0
   -5.2196   -4.4382   -0.3350 C   0  0
   -4.0258   -3.5129   -0.3373 C   0  0
   -4.0259   -2.3361    0.6194 C   0  0  2  0  0  0
   -5.4199   -1.6327    0.6010 C   0  0
   -2.9683   -3.8230   -1.0948 C   0  0
   -1.7411   -2.9495   -1.1524 C   0  0
   -1.5638   -2.0228    0.0708 C   0  0  2  0  0  0
   -2.8826   -1.2658    0.2492 C   0  0  2  0  0  0
   -0.4427   -1.0152   -0.2690 C   0  0  1  0  0  0
   -0.2595    0.0319    0.8141 C   0  0  2  0  0  0
   -1.5806    0.8350    1.0149 C   0  0
   -2.7434   -0.1418    1.3854 C   0  0
    1.0033    0.8978    0.2431 C   0  0  2  0  0  0
    1.6113   -0.1934   -0.7520 C   0  0
    1.0778   -1.5681   -0.4052 C   0  0
    1.8863    1.5792    1.3828 C   0  0  1  0  0  0
    3.0715    2.2750    0.6692 C   0  0
    1.1126    2.6453    2.1433 C   0  0
    0.5969    3.7091    1.5220 C   0  0
   -0.1579    4.7446    2.3077 C   0  0  2  0  0  0
   -1.0976    5.5547    1.2745 C   0  0
   -2.0149    6.6287    1.9063 C   0  0
   -2.0750    4.5618    0.6015 C   0  0
    0.9951    5.5389    3.0896 C   0  0
    0.5568    6.6293    4.1000 C   0  0
    0.1416   -0.6901    2.2424 C   0  0
   -3.7790   -2.9817    2.0592 C   0  0
   -7.6344   -4.5434   -0.2888 O   0  0
   -7.5424   -2.0696    0.7535 H   0  0
   -6.5237   -3.1478    1.7574 H   0  0
   -6.5994   -3.0769   -1.3224 H   0  0
   -5.2224   -4.9843    0.6176 H   0  0
   -5.1560   -5.1530   -1.1664 H   0  0
   -5.4479   -0.8497    1.3678 H   0  0
   -5.5601   -1.1776   -0.3890 H   0  0
   -3.0156   -4.6833   -1.7112 H   0  0
   -0.8421   -3.5460   -1.3545 H   0  0
   -1.9061   -2.2910   -2.0160 H   0  0
   -1.3326   -2.5716    0.9835 H   0  0
   -3.1017   -0.7854   -0.7136 H   0  0
   -0.7288   -0.5140   -1.2023 H   0  0
   -1.4546    1.6003    1.7898 H   0  0
   -1.8350    1.3174    0.0615 H   0  0
   -2.5156   -0.6134    2.3392 H   0  0
   -3.6797    0.4206    1.4842 H   0  0
    0.6945    1.6529   -0.4922 H   0  0
    1.0172   -0.0624   -1.6629 H   0  0
    2.6620   -0.0495   -1.0357 H   0  0
    1.2196   -2.2920   -1.2188 H   0  0
    1.4753   -1.9761    0.5127 H   0  0
    2.2776    0.8318    2.0804 H   0  0
    3.7066    2.7663    1.4191 H   0  0
    2.6917    3.0254   -0.0377 H   0  0
    3.6658    1.5315    0.1232 H   0  0
    0.9838    2.5423    3.1903 H   0  0
    0.7138    3.8264    0.4737 H   0  0
   -0.7659    4.2468    3.0754 H   0  0
   -0.4633    6.0216    0.5085 H   0  0
   -2.6239    7.0876    1.1152 H   0  0
   -1.4263    7.4018    2.3852 H   0  0
   -2.6745    6.1536    2.6458 H   0  0
   -2.7019    5.1064   -0.1176 H   0  0
   -2.7133    4.1051    1.3711 H   0  0
   -1.5236    3.7749    0.0712 H   0  0
    1.5628    4.8026    3.6736 H   0  0
    1.6655    5.9940    2.3474 H   0  0
    1.4507    7.0530    4.5789 H   0  0
   -0.0890    6.1783    4.8664 H   0  0
    0.0222    7.4265    3.5929 H   0  0
    0.2875    0.0838    3.0046 H   0  0
    1.0581   -1.2700    2.1738 H   0  0
   -0.6561   -1.3544    2.5846 H   0  0
   -3.7896   -2.2017    2.8277 H   0  0
   -2.8096   -3.4930    2.0767 H   0  0
   -4.5603   -3.7110    2.2934 H   0  0
   -8.4829   -4.0366   -0.3201 H   0  0
  1  2  1  0
  2  3  1  0
  3  4  1  0
  4  5  1  0
  5  6  1  0
  6  1  1  0
  4  7  2  0
  7  8  1  0
  8  9  1  0
  9 10  1  0
 10  5  1  0
  9 11  1  0
 11 12  1  0
 12 13  1  0
 13 14  1  0
 14 10  1  0
 12 15  1  0
 15 16  1  0
 16 17  1  0
 11 17  1  0
 18 15  1  0
 18 19  1  0
 18 20  1  0
 20 21  2  0
 21 22  1  0
 22 23  1  0
 23 24  1  0
 23 25  1  0
 22 26  1  0
 26 27  1  0
 12 28  1  0
  5 29  1  0
  2 30  1  0
  1 31  1  0
  1 32  1  0
  2 33  1  0
  3 34  1  0
  3 35  1  0
  6 36  1  0
  6 37  1  0
  7 38  1  0
  8 39  1  0
  8 40  1  0
  9 41  1  0
 10 42  1  0
 11 43  1  0
 13 44  1  0
 13 45  1  0
 14 46  1  0
 14 47  1  0
 15 48  1  0
 16 49  1  0
 16 50  1  0
 17 51  1  0
 17 52  1  0
 18 53  1  0
 19 54  1  0
 19 55  1  0
 19 56  1  0
 20 57  1  0
 21 58  1  0
 22 59  1  0
 23 60  1  0
 24 61  1  0
 24 62  1  0
 24 63  1  0
 25 64  1  0
 25 65  1  0
 25 66  1  0
 26 67  1  0
 26 68  1  0
 27 69  1  0
 27 70  1  0
 27 71  1  0
 28 72  1  0
 28 73  1  0
 28 74  1  0
 29 75  1  0
 29 76  1  0
 29 77  1  0
 30 78  1  0
M  END
> <Name>
SKVB2009_34

> <Clean Energy>
148.599

$$$$
SKVB2009_38
  SciTegic12132405553D

 80 83  0  0  0  0            999 V2000
   -6.6521   -2.8514   -1.0184 C   0  0
   -6.1402   -4.2562   -1.4312 C   0  0  1  0  0  0
   -5.1146   -4.7790   -0.4015 C   0  0
   -3.9785   -3.7992   -0.2286 C   0  0
   -4.3156   -2.3360   -0.0237 C   0  0  2  0  0  0
   -5.4294   -1.9000   -1.0282 C   0  0
   -2.7278   -4.2651   -0.1511 C   0  0
   -1.5428   -3.3494    0.0191 C   0  0
   -1.8881   -1.9698    0.6263 C   0  0  2  0  0  0
   -3.0243   -1.3940   -0.2139 C   0  0  2  0  0  0
   -0.6414   -1.0679    0.4788 C   0  0  1  0  0  0
   -0.8942    0.3692    0.9419 C   0  0  2  0  0  0
   -2.0431    0.9798    0.0649 C   0  0
   -3.3354    0.1149    0.2068 C   0  0
    0.5865    1.0628    0.7732 C   0  0  2  0  0  0
    1.4507   -0.2967    0.7456 C   0  0
    0.6700   -1.4413    1.3414 C   0  0
    1.0456    2.2678    1.8057 C   0  0  1  0  0  0
    2.5180    2.5819    1.4676 C   0  0
    0.3815    3.7212    1.7023 C   0  0
   -1.1049    3.8821    2.1076 C   0  0
   -1.6431    5.3782    2.0293 C   0  0  2  0  0  0
   -3.1865    5.3630    2.6086 C   0  0
   -3.8823    6.7433    2.7086 C   0  0
   -3.2270    4.8628    4.0819 C   0  0
   -1.4626    5.8496    0.4811 C   0  0
   -1.8222    7.3123    0.1094 C   0  0
   -1.3176    0.3635    2.5310 C   0  0
   -4.8858   -2.2516    1.4658 C   0  0
   -7.2311   -5.1706   -1.4956 O   0  0
   -7.3856   -2.5008   -1.7567 H   0  0
   -7.1228   -2.8916   -0.0287 H   0  0
   -5.6640   -4.1790   -2.4187 H   0  0
   -5.6491   -4.8502    0.5551 H   0  0
   -4.7319   -5.7694   -0.6817 H   0  0
   -5.7427   -0.8726   -0.8083 H   0  0
   -5.0109   -1.9435   -2.0430 H   0  0
   -2.5614   -5.3054   -0.2622 H   0  0
   -0.7341   -3.8520    0.5650 H   0  0
   -1.1872   -3.1565   -1.0021 H   0  0
   -2.1983   -2.0371    1.6686 H   0  0
   -2.6832   -1.4141   -1.2576 H   0  0
   -0.3768   -1.0562   -0.5859 H   0  0
   -2.2509    1.9951    0.3428 H   0  0
   -1.7259    0.9506   -0.9858 H   0  0
   -3.6643    0.1479    1.2449 H   0  0
   -4.1264    0.5298   -0.4290 H   0  0
    0.7738    1.3937   -0.2566 H   0  0
    1.3808   -0.6240   -0.2962 H   0  0
    2.5182   -0.1831    0.9661 H   0  0
    1.1016   -2.4199    1.0922 H   0  0
    0.5289   -1.3715    2.4107 H   0  0
    0.9799    1.9107    2.8413 H   0  0
    2.8882    3.3525    2.1578 H   0  0
    2.5800    2.9551    0.4359 H   0  0
    3.1361    1.6846    1.5703 H   0  0
    0.9402    4.3690    2.3910 H   0  0
    0.5363    4.0710    0.6785 H   0  0
   -1.7168    3.2823    1.4838 H   0  0
   -1.1757    3.5222    3.1332 H   0  0
   -1.0291    6.0204    2.6751 H   0  0
   -3.7905    4.6949    1.9788 H   0  0
   -4.8891    6.6034    3.1262 H   0  0
   -3.9745    7.2015    1.7371 H   0  0
   -3.2998    7.3965    3.3731 H   0  0
   -4.2706    4.8525    4.4258 H   0  0
   -2.6428    5.5482    4.7116 H   0  0
   -2.8187    3.8513    4.1676 H   0  0
   -0.4092    5.7522    0.2142 H   0  0
   -2.0514    5.1726   -0.1537 H   0  0
   -1.6026    7.4729   -0.9553 H   0  0
   -1.2172    8.0021    0.7144 H   0  0
   -2.8738    7.5042    0.2769 H   0  0
   -1.4779    1.3765    2.8637 H   0  0
   -0.5520   -0.0731    3.1651 H   0  0
   -2.2468   -0.1919    2.6847 H   0  0
   -5.1843   -1.2235    1.6962 H   0  0
   -4.1166   -2.5727    2.1776 H   0  0
   -5.7587   -2.9013    1.5814 H   0  0
   -7.6566   -5.2330   -0.6047 H   0  0
  1  2  1  0
  2  3  1  0
  3  4  1  0
  4  5  1  0
  5  6  1  0
  6  1  1  0
  4  7  2  0
  7  8  1  0
  8  9  1  0
  9 10  1  0
 10  5  1  0
  9 11  1  0
 11 12  1  0
 12 13  1  0
 13 14  1  0
 14 10  1  0
 12 15  1  0
 15 16  1  0
 16 17  1  0
 11 17  1  0
 18 15  1  0
 18 19  1  0
 18 20  1  0
 20 21  1  0
 21 22  1  0
 22 23  1  0
 23 24  1  0
 23 25  1  0
 22 26  1  0
 26 27  1  0
 12 28  1  0
  5 29  1  0
  2 30  1  0
  1 31  1  0
  1 32  1  0
  2 33  1  0
  3 34  1  0
  3 35  1  0
  6 36  1  0
  6 37  1  0
  7 38  1  0
  8 39  1  0
  8 40  1  0
  9 41  1  0
 10 42  1  0
 11 43  1  0
 13 44  1  0
 13 45  1  0
 14 46  1  0
 14 47  1  0
 15 48  1  0
 16 49  1  0
 16 50  1  0
 17 51  1  0
 17 52  1  0
 18 53  1  0
 19 54  1  0
 19 55  1  0
 19 56  1  0
 20 57  1  0
 20 58  1  0
 21 59  1  0
 21 60  1  0
 22 61  1  0
 23 62  1  0
 24 63  1  0
 24 64  1  0
 24 65  1  0
 25 66  1  0
 25 67  1  0
 25 68  1  0
 26 69  1  0
 26 70  1  0
 27 71  1  0
 27 72  1  0
 27 73  1  0
 28 74  1  0
 28 75  1  0
 28 76  1  0
 29 77  1  0
 29 78  1  0
 29 79  1  0
 30 80  1  0
M  END
> <Name>
SKVB2009_38

> <Clean Energy>
141.468

$$$$
SKVB2009_39
  SciTegic12132405553D

 65 69  0  0  0  0            999 V2000
   -5.5563    0.8295    0.8636 C   0  0
   -5.6973   -0.2575   -0.0894 C   0  0
   -4.3535   -1.2183    0.1514 C   0  0  1  0  0  0
   -2.9731   -0.3272    0.5881 C   0  0  2  0  0  0
   -2.9913    0.9499   -0.2856 C   0  0  1  0  0  0
   -4.2531    1.7574    0.3716 C   0  0
   -1.5475   -1.1156    0.6902 C   0  0
   -0.8129   -0.9640   -0.6127 C   0  0
   -0.3863    0.6735   -0.6474 C   0  0  2  0  0  0
   -1.6184    1.6828   -0.0959 C   0  0  1  0  0  0
   -4.4930   -2.1530    1.3848 C   0  0
   -3.2235    0.7358   -1.9610 C   0  0
    0.3853    1.3006   -1.9525 C   0  0
    0.8544    2.7225   -1.2528 C   0  0  1  0  0  0
   -0.2869    3.7511   -0.9784 C   0  0
   -1.5736    3.0163   -0.8770 C   0  0
    1.2610    2.2258    0.0732 C   0  0
    0.8510    0.8621    0.3089 C   0  0  2  0  0  0
    1.9058    2.9801    0.9659 C   0  0
    1.8607   -0.0554   -0.1873 O   0  0
    3.0330   -0.1308    0.5773 C   0  0
    4.0998   -1.0093    0.1331 C   0  0
    3.9360   -1.7766   -1.0999 C   0  0
    4.9090   -2.5851   -1.5143 C   0  0
    6.1428   -2.7048   -0.7341 C   0  0
    6.2908   -2.0047    0.3894 C   0  0
    5.2201   -1.1162    0.8438 C   0  0
    3.1620    0.5060    1.6272 O   0  0
   -4.2463   -2.1434   -1.0476 C   0  0
   -3.3276   -2.9656   -1.1233 O   0  0
   -5.1977   -2.0760   -2.0564 O   0  0
   -6.4380    1.4793    0.9436 H   0  0
   -5.3683    0.3633    1.8359 H   0  0
   -6.6040   -0.8733   -0.0223 H   0  0
   -5.6870    0.2539   -1.0475 H   0  0
   -3.1183    0.0284    1.6180 H   0  0
   -3.9501    2.1723    1.3421 H   0  0
   -4.4981    2.5855   -0.3067 H   0  0
   -0.9080   -0.6099    1.3948 H   0  0
   -1.7105   -2.1343    1.0566 H   0  0
    0.1002   -1.5662   -0.7060 H   0  0
   -1.5125   -1.2525   -1.3946 H   0  0
   -1.5254    1.7814    0.9955 H   0  0
   -4.6083   -1.5499    2.2951 H   0  0
   -3.6063   -2.7877    1.4798 H   0  0
   -5.3780   -2.7897    1.2530 H   0  0
   -3.2705    1.7079   -2.4552 H   0  0
   -4.1461    0.2294   -2.1782 H   0  0
   -2.4203    0.1640   -2.4088 H   0  0
    1.2619    0.6709   -2.1352 H   0  0
   -0.1894    1.4080   -2.8841 H   0  0
    1.6674    3.2850   -1.7303 H   0  0
   -0.0066    4.3925   -0.1350 H   0  0
   -0.4734    4.3744   -1.8626 H   0  0
   -2.3671    3.7011   -0.5536 H   0  0
   -1.7575    2.7697   -1.9087 H   0  0
    0.6522    0.6311    1.3618 H   0  0
    2.1637    3.9808    0.7280 H   0  0
    2.1589    2.5789    1.9127 H   0  0
    3.0412   -1.6887   -1.6641 H   0  0
    4.7908   -3.1423   -2.4088 H   0  0
    6.9183   -3.3488   -1.0636 H   0  0
    7.1840   -2.0912    0.9544 H   0  0
    5.3368   -0.5586    1.7381 H   0  0
   -4.9851   -2.7439   -2.7527 H   0  0
 29 30  2  0
 29 31  1  0
  3 29  1  0
  1  2  1  0
  2  3  1  0
  3  4  1  0
  4  5  1  0
  5  6  1  0
  6  1  1  0
  4  7  1  0
  7  8  1  0
  8  9  1  0
  9 10  1  0
 10  5  1  0
  3 11  1  0
  5 12  1  0
  9 13  1  0
 14 13  1  0
 14 15  1  0
 15 16  1  0
 16 10  1  0
 14 17  1  0
  9 18  1  0
 18 17  1  0
 17 19  2  0
 18 20  1  0
 20 21  1  0
 21 22  1  0
 22 23  1  0
 23 24  2  0
 24 25  1  0
 25 26  2  0
 26 27  1  0
 27 22  2  0
 21 28  2  0
  1 32  1  0
  1 33  1  0
  2 34  1  0
  2 35  1  0
  4 36  1  0
  6 37  1  0
  6 38  1  0
  7 39  1  0
  7 40  1  0
  8 41  1  0
  8 42  1  0
 10 43  1  0
 11 44  1  0
 11 45  1  0
 11 46  1  0
 12 47  1  0
 12 48  1  0
 12 49  1  0
 13 50  1  0
 13 51  1  0
 14 52  1  0
 15 53  1  0
 15 54  1  0
 16 55  1  0
 16 56  1  0
 18 57  1  0
 19 58  1  0
 19 59  1  0
 23 60  1  0
 24 61  1  0
 25 62  1  0
 26 63  1  0
 27 64  1  0
 31 65  1  0
M  END
> <Name>
SKVB2009_39

> <Clean Energy>
261.366

$$$$
PKB2011_CC1
  SciTegic12132405553D

 35 37  0  0  0  0            999 V2000
   -4.2283    0.6529   -0.1709 C   0  0
   -4.3603   -0.8015   -0.1384 C   0  0
   -3.2736   -1.5663   -0.0662 C   0  0
   -1.9446   -0.9450   -0.0194 C   0  0
   -1.8259    0.3757   -0.0487 C   0  0
   -3.0219    1.2136   -0.1282 C   0  0
   -0.7553   -1.7567    0.0587 C   0  0
    0.5688   -1.0862    0.1026 C   0  0
    0.5849    0.2649    0.0677 C   0  0
   -0.6007    0.9635   -0.0057 O   0  0
   -5.3630    1.4497   -0.2465 O   0  0
   -3.4054   -2.9494   -0.0356 O   0  0
   -0.8711   -2.9833    0.0874 O   0  0
    1.7870   -1.8218    0.1803 O   0  0
    1.6869   -3.5297    0.2200 S   0  0
    0.9581   -4.1109   -1.2054 O   0  5
    3.0919   -4.0939    0.3109 O   0  0
    0.9023   -3.9815    1.4381 O   0  0
    1.8286    1.1248    0.1033 C   0  0
    3.0838    0.6579    0.1645 C   0  0
    4.2167    1.5846    0.1939 C   0  0
    4.0118    2.8973    0.1607 C   0  0
    2.6519    3.4173    0.0943 C   0  0
    1.6191    2.5791    0.0668 C   0  0
    5.0950    3.7683    0.1892 O   0  0
    2.4276    4.7903    0.0596 O   0  0
   -5.3218   -1.2473   -0.1724 H   0  0
   -2.9274    2.2694   -0.1518 H   0  0
   -6.1671    0.8736   -0.2697 H   0  0
   -4.3638   -3.1897   -0.0748 H   0  0
    3.2762   -0.3675    0.1915 H   0  0
    5.2061    1.2062    0.2420 H   0  0
    0.6329    2.9656    0.0185 H   0  0
    5.9350    3.2478    0.2338 H   0  0
    3.2909    5.2698    0.0870 H   0  0
  1  2  1  0
  2  3  2  0
  3  4  1  0
  4  5  2  0
  5  6  1  0
  6  1  2  0
  4  7  1  0
  7  8  1  0
  8  9  2  0
  9 10  1  0
 10  5  1  0
  1 11  1  0
  3 12  1  0
  7 13  2  0
  8 14  1  0
 14 15  1  0
 15 16  1  0
 15 17  2  0
 15 18  2  0
  9 19  1  0
 19 20  2  0
 20 21  1  0
 21 22  2  0
 22 23  1  0
 23 24  2  0
 24 19  1  0
 22 25  1  0
 23 26  1  0
  2 27  1  0
  6 28  1  0
 11 29  1  0
 12 30  1  0
 20 31  1  0
 21 32  1  0
 24 33  1  0
 25 34  1  0
 26 35  1  0
M  CHG  1  16  -1
M  END
> <Name>
PKB2011_CC1

> <Clean Energy>
-0.534399

$$$$
PKB2011_CC3
  SciTegic12132405553D

 53 56  0  0  0  0            999 V2000
   -2.3399    2.2188    0.9572 C   0  0
   -2.7712    0.8434    0.7490 C   0  0
   -1.8930   -0.1002    0.3758 C   0  0
   -0.4714    0.2936    0.2206 C   0  0
   -0.0915    1.5498    0.4255 C   0  0
   -1.0660    2.5552    0.8000 C   0  0
    0.5400   -0.6824   -0.1384 C   0  0
    1.9347   -0.2527   -0.2206 C   0  0
    2.2269    1.0412    0.0070 C   0  0
    1.2140    1.9178    0.3012 O   0  0
   -3.2690    3.1823    1.3217 O   0  0
   -2.2382   -1.4928    0.1528 O   0  0
    0.2345   -1.8619   -0.3418 O   0  0
    2.9042   -1.2007   -0.5272 O   0  0
    3.6054    1.6405   -0.0203 C   0  0
    4.7326    0.9475   -0.2301 C   0  0
    6.0300    1.6328   -0.2207 C   0  0
    6.0959    2.9437   -0.0062 C   0  0
    4.8727    3.7046    0.2187 C   0  0
    3.6952    3.0870    0.2131 C   0  0
    7.3301    3.5848    0.0051 O   0  0
    4.9302    5.0777    0.4408 O   0  0
   -3.6407   -1.9560    0.2423 C   0  0  2  0  0  0
   -5.9312   -2.1355   -0.7990 C   0  0  1  0  0  0
   -5.8097   -3.6422   -0.6832 C   0  0  1  0  0  0
   -4.9003   -3.9771    0.4997 C   0  0  2  0  0  0
   -3.5916   -3.4014    0.3037 O   0  0
   -4.5366   -1.5503   -1.0046 C   0  0  1  0  0  0
   -6.7644   -1.8085   -1.9071 O   0  0
   -7.1006   -4.2117   -0.4758 O   0  0
   -4.7775   -5.5029    0.5982 C   0  0
   -3.9316   -5.8435    1.6957 O   0  0
   -4.6824   -0.1449   -1.1506 O   0  0
   -3.7820    0.6103    0.8989 H   0  0
   -0.7595    3.5579    0.9545 H   0  0
   -4.1627    2.7638    1.3928 H   0  0
    2.4815   -2.0836   -0.6540 H   0  0
    4.7063   -0.0865   -0.3951 H   0  0
    6.9201    1.0794   -0.3826 H   0  0
    2.8100    3.6470    0.3783 H   0  0
    8.0466    2.9240   -0.1604 H   0  0
    5.8696    5.3814    0.4138 H   0  0
   -4.0860   -1.5808    1.1743 H   0  0
   -6.3674   -1.7252    0.1231 H   0  0
   -5.3720   -4.0457   -1.6063 H   0  0
   -5.3360   -3.5797    1.4270 H   0  0
   -4.0902   -1.9635   -1.9193 H   0  0
   -6.3688   -2.1787   -2.7330 H   0  0
   -7.4901   -3.8434    0.3568 H   0  0
   -5.7742   -5.9406    0.7517 H   0  0
   -4.3450   -5.8933   -0.3339 H   0  0
   -3.0347   -5.4510    1.5534 H   0  0
   -5.1464    0.2173   -0.3587 H   0  0
  1  2  1  0
  2  3  2  0
  3  4  1  0
  4  5  2  0
  5  6  1  0
  6  1  2  0
  4  7  1  0
  7  8  1  0
  8  9  2  0
  9 10  1  0
 10  5  1  0
  1 11  1  0
  3 12  1  0
  7 13  2  0
  8 14  1  0
  9 15  1  0
 15 16  2  0
 16 17  1  0
 17 18  2  0
 18 19  1  0
 19 20  2  0
 20 15  1  0
 18 21  1  0
 19 22  1  0
 12 23  1  0
 24 25  1  0
 25 26  1  0
 26 27  1  0
 27 23  1  0
 23 28  1  0
 28 24  1  0
 24 29  1  0
 25 30  1  0
 26 31  1  0
 31 32  1  0
 28 33  1  0
  2 34  1  0
  6 35  1  0
 11 36  1  0
 14 37  1  0
 16 38  1  0
 17 39  1  0
 20 40  1  0
 21 41  1  0
 22 42  1  0
 23 43  1  0
 24 44  1  0
 25 45  1  0
 26 46  1  0
 28 47  1  0
 29 48  1  0
 30 49  1  0
 31 50  1  0
 31 51  1  0
 32 52  1  0
 33 53  1  0
M  END
> <Name>
PKB2011_CC3

> <Clean Energy>
-2.11071

$$$$
PBK2011_CC4
  SciTegic12132405553D

 49 52  0  0  0  0            999 V2000
   -4.3735    1.8028   -0.2341 C   0  0
   -4.5860    0.3752   -0.4534 C   0  0
   -3.5451   -0.4523   -0.5017 C   0  0
   -2.1837    0.0735   -0.3328 C   0  0
   -1.9928    1.3702   -0.1333 C   0  0
   -3.1393    2.2770   -0.0823 C   0  0
   -1.0449   -0.8106   -0.3791 C   0  0
    0.3328   -0.2246   -0.1720 C   0  0
    0.4061    1.1125    0.0190 C   0  0
   -0.7422    1.8729    0.0263 O   0  0
   -5.4606    2.6651   -0.1837 O   0  0
   -3.7552   -1.8103   -0.7095 O   0  0
   -1.2495   -2.0116   -0.5832 O   0  0
    1.5424   -1.0062   -0.1731 O   0  0
    1.6827    1.9025    0.2257 C   0  0
    2.9173    1.3801    0.2689 C   0  0
    4.0807    2.2474    0.4648 C   0  0
    3.9252    3.5604    0.5997 C   0  0
    2.5894    4.1402    0.5552 C   0  0
    1.5289    3.3565    0.3798 C   0  0
    5.0372    4.3748    0.7823 O   0  0
    2.4166    5.5142    0.6944 O   0  0
    1.4617   -2.4180   -0.4101 C   0  0  2  0  0  0
    0.6434   -3.1644    0.5539 O   0  0
    1.3372   -4.4471    0.6621 C   0  0  2  0  0  0
    2.2441   -4.4946   -0.5548 C   0  0  1  0  0  0
    2.8096   -3.1294   -0.3739 C   0  0  1  0  0  0
    3.7078   -2.7041   -1.3955 O   0  0
    3.1853   -5.5642   -0.5155 O   0  0
    0.4074   -5.6574    0.7873 C   0  0
   -0.3987   -5.5178    1.9555 O   0  0
   -5.5697   -0.0018   -0.5738 H   0  0
   -2.9864    3.3140    0.0772 H   0  0
   -6.2946    2.1489   -0.3137 H   0  0
   -4.7245   -1.9835   -0.7994 H   0  0
    3.0725    0.3541    0.1626 H   0  0
    5.0530    1.8255    0.4970 H   0  0
    0.5605    3.7873    0.3476 H   0  0
    5.8554    3.8191    0.7862 H   0  0
    3.2949    5.9503    0.8142 H   0  0
    1.0443   -2.6005   -1.4101 H   0  0
    1.9953   -4.3839    1.5397 H   0  0
    1.6707   -4.5354   -1.4914 H   0  0
    3.2954   -3.0425    0.6087 H   0  0
    4.5188   -3.2699   -1.3733 H   0  0
    3.6998   -5.5148    0.3282 H   0  0
   -0.2384   -5.7128   -0.1012 H   0  0
    1.0093   -6.5740    0.8614 H   0  0
    0.1847   -5.4631    2.7512 H   0  0
  1  2  1  0
  2  3  2  0
  3  4  1  0
  4  5  2  0
  5  6  1  0
  6  1  2  0
  4  7  1  0
  7  8  1  0
  8  9  2  0
  9 10  1  0
 10  5  1  0
  1 11  1  0
  3 12  1  0
  7 13  2  0
  8 14  1  0
  9 15  1  0
 15 16  2  0
 16 17  1  0
 17 18  2  0
 18 19  1  0
 19 20  2  0
 20 15  1  0
 18 21  1  0
 19 22  1  0
 23 14  1  0
 23 24  1  0
 24 25  1  0
 25 26  1  0
 26 27  1  0
 27 23  1  0
 27 28  1  0
 26 29  1  0
 25 30  1  0
 30 31  1  0
  2 32  1  0
  6 33  1  0
 11 34  1  0
 12 35  1  0
 16 36  1  0
 17 37  1  0
 20 38  1  0
 21 39  1  0
 22 40  1  0
 23 41  1  0
 25 42  1  0
 26 43  1  0
 27 44  1  0
 28 45  1  0
 29 46  1  0
 30 47  1  0
 30 48  1  0
 31 49  1  0
M  END
> <Name>
PBK2011_CC4

> <Clean Energy>
30.6728

$$$$
MPR2023_1
  SciTegic12132405553D

 62 67  0  0  0  0            999 V2000
   -9.9996    5.7352   -0.6164 C   0  0
   -9.0690    4.8622   -0.9856 C   0  0
   -9.4481    3.5407   -1.5180 C   0  0
  -10.7589    3.2383   -1.6481 C   0  0
  -11.7651    4.2250   -1.2346 C   0  0
  -11.4013    5.4032   -0.7399 C   0  0
   -7.7572    5.2401   -0.8918 O   0  0
   -6.6757    4.4967   -1.4150 C   0  0  2  0  0  0
   -6.4584    4.9794   -2.9139 C   0  0
   -7.4389    4.7289   -4.0208 C   0  0
   -7.1804    5.1208   -5.2618 C   0  0
   -5.9467    5.8093   -5.5662 C   0  0
   -5.0683    6.0639   -4.5989 C   0  0
   -5.3356    5.6339   -3.2148 C   0  0
   -5.6867    6.2017   -6.8729 O   0  0
  -12.3674    6.3219   -0.3471 O   0  0
   -8.3354    2.6193   -1.8673 C   0  0
   -6.9855    2.9243   -1.2261 C   0  0  1  0  0  0
   -5.6792    1.9777   -1.6012 C   0  0  2  0  0  0
   -5.1452    2.1519   -2.9848 C   0  0
   -5.6751    1.3652   -4.1038 C   0  0
   -5.3325    1.6796   -5.5328 C   0  0
   -5.8741    0.9485   -6.5006 C   0  0
   -6.7863   -0.1409   -6.1843 C   0  0
   -7.0856   -0.4254   -4.9186 C   0  0
   -6.5011    0.3530   -3.8328 C   0  0
   -8.5633    1.5510   -2.4218 O   0  0
   -4.2504    2.9787   -3.1623 O   0  0
   -4.4674    2.7265   -5.9199 O   0  0
   -7.3441   -0.8832   -7.2134 O   0  0
   -6.8056    0.0298   -2.5146 O   0  0
   -5.9511    0.4501   -1.4784 C   0  0  2  0  0  0
   -6.4943    0.0407   -0.1349 C   0  0
   -7.7410   -0.4262   -0.0595 C   0  0
   -8.2935   -0.8473    1.2187 C   0  0
   -7.5507   -0.7738    2.3192 C   0  0
   -6.1769   -0.2644    2.2437 C   0  0
   -5.6729    0.1257    1.0723 C   0  0
   -8.0803   -1.1823    3.5373 O   0  0
  -11.2522    2.0055   -2.1372 O   0  0
   -9.7125    6.6857   -0.2437 H   0  0
  -12.7951    3.9908   -1.3236 H   0  0
   -5.7731    4.7568   -0.8460 H   0  0
   -8.3410    4.2361   -3.8313 H   0  0
   -7.8838    4.9281   -6.0330 H   0  0
   -4.1664    6.5689   -4.8298 H   0  0
   -4.6210    5.8253   -2.4580 H   0  0
   -6.4432    5.9276   -7.4537 H   0  0
  -13.2667    5.9398   -0.4984 H   0  0
   -7.1600    2.7660   -0.1528 H   0  0
   -4.9055    2.3094   -0.8949 H   0  0
   -5.6421    1.1650   -7.5124 H   0  0
   -7.7488   -1.2209   -4.6994 H   0  0
   -4.1206    3.2185   -5.1644 H   0  0
   -7.0148   -0.5358   -8.0806 H   0  0
   -4.9667   -0.0127   -1.6306 H   0  0
   -8.3350   -0.4916   -0.9356 H   0  0
   -9.2870   -1.2157    1.2711 H   0  0
   -5.5850   -0.2081    3.1210 H   0  0
   -4.6803    0.4920    1.0157 H   0  0
   -9.0107   -1.4964    3.4027 H   0  0
  -10.5564    1.3881   -2.3780 H   0  0
  1  2  2  0
  2  3  1  0
  3  4  2  0
  4  5  1  0
  5  6  2  0
  6  1  1  0
  7  8  1  0
  8  9  1  0
  2  7  1  0
 10 11  2  0
 11 12  1  0
 12 13  2  0
 13 14  1  0
  9 10  1  0
  9 14  2  0
 12 15  1  0
  6 16  1  0
 17 18  1  0
 18 19  1  0
 19 20  1  0
 20 21  1  0
  3 17  1  0
 22 23  2  0
 23 24  1  0
 24 25  2  0
 25 26  1  0
 21 22  1  0
 21 26  2  0
 18  8  1  0
 17 27  2  0
 20 28  2  0
 22 29  1  0
 24 30  1  0
 31 32  1  0
 32 33  1  0
 26 31  1  0
 34 35  1  0
 35 36  2  0
 36 37  1  0
 37 38  2  0
 33 34  2  0
 33 38  1  0
 36 39  1  0
 32 19  1  0
 40  4  1  0
  1 41  1  0
  5 42  1  0
  8 43  1  0
 10 44  1  0
 11 45  1  0
 13 46  1  0
 14 47  1  0
 15 48  1  0
 16 49  1  0
 18 50  1  0
 19 51  1  0
 23 52  1  0
 25 53  1  0
 29 54  1  0
 30 55  1  0
 32 56  1  0
 34 57  1  0
 35 58  1  0
 37 59  1  0
 38 60  1  0
 39 61  1  0
 40 62  1  0
M  END
> <Name>
MPR2023_1

> <Clean Energy>
65.7727

$$$$
MPR2023_2
  SciTegic12132405553D

 65 70  0  0  0  0            999 V2000
   -8.2202    4.7869   -4.7840 C   0  0
   -7.8706    4.3070   -3.5990 C   0  0
   -7.0656    5.1235   -2.6576 C   0  0
   -6.7302    6.3795   -3.0123 C   0  0
   -7.1357    6.8937   -4.3328 C   0  0
   -7.8364    6.1257   -5.1893 C   0  0
   -8.2711    3.0367   -3.2600 O   0  0
   -8.3063    2.6177   -1.9226 C   0  0  2  0  0  0
   -9.5870    3.2271   -1.2276 C   0  0
   -9.8110    4.6686   -0.8825 C   0  0
  -10.9353    5.0528   -0.2832 C   0  0
  -11.9621    4.0789    0.0451 C   0  0
  -11.7815    2.7969   -0.2543 C   0  0
  -10.5482    2.3568   -0.9142 C   0  0
  -13.1321    4.4900    0.6732 O   0  0
   -8.2376    6.5307   -6.5098 O   0  0
   -6.6426    4.4557   -1.3668 C   0  0
   -6.9381    2.9891   -1.1983 C   0  0  2  0  0  0
   -5.6595    2.0914   -1.7173 C   0  0  1  0  0  0
   -5.9940    0.6409   -1.4466 C   0  0
   -5.1375   -0.4196   -2.0388 C   0  0
   -5.2531   -1.8754   -1.6650 C   0  0
   -4.4116   -2.7553   -2.2068 C   0  0
   -3.3912   -2.3226   -3.1508 C   0  0
   -3.2950   -1.0432   -3.4892 C   0  0
   -4.2034   -0.0580   -2.9193 C   0  0
   -5.9682    5.0359   -0.5135 O   0  0
   -6.8616    0.3618   -0.6151 O   0  0
   -6.2117   -2.3690   -0.7623 O   0  0
   -2.5159   -3.2498   -3.7016 O   0  0
   -4.0750    1.2255   -3.3154 O   0  0
   -5.1125    2.1529   -3.2120 C   0  0  2  0  0  0
   -4.4347    3.4425   -3.6372 C   0  0
   -3.4883    3.9821   -2.8662 C   0  0
   -2.7964    5.1937   -3.2908 C   0  0
   -3.1000    5.7609   -4.4548 C   0  0
   -4.1275    5.1690   -5.3094 C   0  0
   -4.7594    4.0620   -4.9228 C   0  0
   -2.4345    6.9113   -4.8590 O   0  0
   -5.9665    7.2497   -2.2052 O   0  0
   -8.7908    4.1841   -5.4432 H   0  0
   -6.8384    7.8731   -4.5894 H   0  0
   -8.4602    1.5343   -1.8763 H   0  0
   -9.0909    5.3906   -1.1061 H   0  0
  -11.0827    6.0755   -0.0435 H   0  0
  -12.5329    2.0885   -0.0122 H   0  0
  -10.4173    1.3300   -1.1421 H   0  0
  -13.0995    5.4684    0.8214 H   0  0
   -7.8190    7.8355   -6.9421 C   0  0
   -7.0131    2.7297   -0.1340 H   0  0
   -4.7974    2.3552   -1.0927 H   0  0
   -4.4851   -3.7804   -1.9481 H   0  0
   -2.5514   -0.7350   -4.1798 H   0  0
   -6.7828   -1.6687   -0.4203 H   0  0
   -2.7227   -4.1485   -3.3460 H   0  0
   -5.9088    1.8738   -3.9158 H   0  0
   -3.2267    3.5250   -1.9468 H   0  0
   -2.0459    5.6185   -2.6735 H   0  0
   -4.3706    5.6216   -6.2367 H   0  0
   -5.5048    3.6340   -5.5419 H   0  0
   -1.7728    7.1685   -4.1687 H   0  0
   -5.7218    6.8583   -1.3609 H   0  0
   -8.1834    8.0134   -7.9640 H   0  0
   -6.7187    7.8877   -6.9340 H   0  0
   -8.2297    8.5999   -6.2687 H   0  0
  1  2  2  0
  2  3  1  0
  3  4  2  0
  4  5  1  0
  5  6  2  0
  6  1  1  0
  7  8  1  0
  8  9  1  0
  2  7  1  0
 10 11  2  0
 11 12  1  0
 12 13  2  0
 13 14  1  0
  9 10  1  0
  9 14  2  0
 12 15  1  0
  6 16  1  0
 17 18  1  0
 18 19  1  0
 19 20  1  0
 20 21  1  0
  3 17  1  0
 22 23  2  0
 23 24  1  0
 24 25  2  0
 25 26  1  0
 21 22  1  0
 21 26  2  0
 18  8  1  0
 17 27  2  0
 20 28  2  0
 22 29  1  0
 24 30  1  0
 31 32  1  0
 32 33  1  0
 26 31  1  0
 34 35  1  0
 35 36  2  0
 36 37  1  0
 37 38  2  0
 33 34  2  0
 33 38  1  0
 36 39  1  0
 32 19  1  0
 40  4  1  0
  1 41  1  0
  5 42  1  0
  8 43  1  0
 10 44  1  0
 11 45  1  0
 13 46  1  0
 14 47  1  0
 15 48  1  0
 16 49  1  0
 18 50  1  0
 19 51  1  0
 23 52  1  0
 25 53  1  0
 29 54  1  0
 30 55  1  0
 32 56  1  0
 34 57  1  0
 35 58  1  0
 37 59  1  0
 38 60  1  0
 39 61  1  0
 40 62  1  0
 49 63  1  0
 49 64  1  0
 49 65  1  0
M  END
> <Name>
MPR2023_2

> <Clean Energy>
67.6995

$$$$
MPR2023_3
  SciTegic12132405553D

 68 73  0  0  0  0            999 V2000
   -9.9803    6.1054   -1.3451 C   0  0
   -9.0750    5.1528   -1.5396 C   0  0
   -9.4668    3.8657   -2.1156 C   0  0
  -10.7530    3.6671   -2.4755 C   0  0
  -11.7359    4.7265   -2.2581 C   0  0
  -11.3762    5.8981   -1.7062 C   0  0
   -7.7612    5.4191   -1.2199 O   0  0
   -6.6713    4.5794   -1.5741 C   0  0  2  0  0  0
   -6.1731    5.0554   -2.9850 C   0  0
   -6.9306    4.8527   -4.2557 C   0  0
   -6.4322    5.2752   -5.4130 C   0  0
   -5.1447    5.9460   -5.4537 C   0  0
   -4.4608    6.1441   -4.3302 C   0  0
   -4.9973    5.6823   -3.0448 C   0  0
   -4.6317    6.3815   -6.6692 O   0  0
  -12.2844    6.9851   -1.4457 O   0  0
   -8.4100    2.8496   -2.2477 C   0  0
   -7.1429    3.0522   -1.4263 C   0  0  1  0  0  0
   -5.9160    1.9545   -1.6305 C   0  0  2  0  0  0
   -5.3040    2.0095   -3.0004 C   0  0
   -5.8298    1.1497   -4.0916 C   0  0
   -5.4119    1.3205   -5.5213 C   0  0
   -5.9528    0.5483   -6.4585 C   0  0
   -6.9709   -0.4834   -6.0941 C   0  0
   -7.3205   -0.6235   -4.8196 C   0  0
   -6.7327    0.2105   -3.7837 C   0  0
   -8.6533    1.7834   -2.7903 O   0  0
   -4.3716    2.7900   -3.2022 O   0  0
   -4.4706    2.2824   -5.9462 O   0  0
   -7.6069   -1.3399   -7.0442 O   0  0
   -7.1342    0.0280   -2.4690 O   0  0
   -6.2959    0.4290   -1.4318 C   0  0  2  0  0  0
   -6.9221    0.0885   -0.0811 C   0  0
   -8.2139    0.3221    0.1679 C   0  0
   -8.7954   -0.0347    1.4570 C   0  0
   -8.0458   -0.6193    2.3862 C   0  0
   -6.6363   -0.8998    2.1148 C   0  0
   -6.1010   -0.5584    0.9432 C   0  0
   -8.6037   -0.9637    3.6120 O   0  0
  -11.2594    2.4677   -3.0406 O   0  0
   -9.6798    7.0348   -0.9338 H   0  0
  -12.7341    4.5308   -2.5396 H   0  0
   -5.8504    4.7666   -0.8693 H   0  0
   -7.8629    4.3736   -4.2502 H   0  0
   -6.9776    5.1233   -6.3099 H   0  0
   -3.5219    6.6354   -4.3651 H   0  0
   -4.4415    5.8398   -2.1571 H   0  0
   -5.2670    6.1536   -7.3942 H   0  0
  -13.6669    6.7695   -1.7945 C   0  0
   -7.4637    2.9576   -0.3815 H   0  0
   -5.1633    2.2532   -0.8885 H   0  0
   -5.6483    0.6894   -7.4614 H   0  0
   -8.0421   -1.3527   -4.5533 H   0  0
   -4.1305    2.8137   -5.2148 H   0  0
   -7.2122   -1.1439   -8.4101 C   0  0
   -5.3492   -0.1210   -1.5266 H   0  0
   -8.8205    0.7695   -0.5700 H   0  0
   -9.8181    0.1698    1.6514 H   0  0
   -6.0409   -1.3767    2.8514 H   0  0
   -5.0804   -0.7664    0.7473 H   0  0
   -9.5593   -0.7033    3.6239 H   0  0
  -10.5952    1.7876   -3.1596 H   0  0
  -14.2502    7.6668   -1.5466 H   0  0
  -14.0602    5.9112   -1.2276 H   0  0
  -13.7495    6.5666   -2.8728 H   0  0
   -7.7601   -1.8480   -9.0513 H   0  0
   -6.1317   -1.3220   -8.5125 H   0  0
   -7.4471   -0.1132   -8.7172 H   0  0
  1  2  2  0
  2  3  1  0
  3  4  2  0
  4  5  1  0
  5  6  2  0
  6  1  1  0
  7  8  1  0
  8  9  1  0
  2  7  1  0
 10 11  2  0
 11 12  1  0
 12 13  2  0
 13 14  1  0
  9 10  1  0
  9 14  2  0
 12 15  1  0
  6 16  1  0
 17 18  1  0
 18 19  1  0
 19 20  1  0
 20 21  1  0
  3 17  1  0
 22 23  2  0
 23 24  1  0
 24 25  2  0
 25 26  1  0
 21 22  1  0
 21 26  2  0
 18  8  1  0
 17 27  2  0
 20 28  2  0
 22 29  1  0
 24 30  1  0
 31 32  1  0
 32 33  1  0
 26 31  1  0
 34 35  1  0
 35 36  2  0
 36 37  1  0
 37 38  2  0
 33 34  2  0
 33 38  1  0
 36 39  1  0
 32 19  1  0
 40  4  1  0
  1 41  1  0
  5 42  1  0
  8 43  1  0
 10 44  1  0
 11 45  1  0
 13 46  1  0
 14 47  1  0
 15 48  1  0
 16 49  1  0
 18 50  1  0
 19 51  1  0
 23 52  1  0
 25 53  1  0
 29 54  1  0
 30 55  1  0
 32 56  1  0
 34 57  1  0
 35 58  1  0
 37 59  1  0
 38 60  1  0
 39 61  1  0
 40 62  1  0
 49 63  1  0
 49 64  1  0
 49 65  1  0
 55 66  1  0
 55 67  1  0
 55 68  1  0
M  END
> <Name>
MPR2023_3

> <Clean Energy>
70.4996

$$$$
MPR2023_4
  SciTegic12132405553D

 71 76  0  0  0  0            999 V2000
   -8.1620    4.8371   -4.7842 C   0  0
   -7.7944    4.3430   -3.6099 C   0  0
   -6.9812    5.1513   -2.6703 C   0  0
   -6.6459    6.4094   -3.0184 C   0  0
   -7.0758    6.9419   -4.3216 C   0  0
   -7.7947    6.1875   -5.1743 C   0  0
   -8.1877    3.0652   -3.2755 O   0  0
   -8.2403    2.6528   -1.9331 C   0  0  2  0  0  0
   -9.5203    3.2770   -1.2593 C   0  0
   -9.7228    4.7124   -0.8990 C   0  0
  -10.8476    5.1168   -0.3166 C   0  0
  -11.9260    4.1359   -0.0131 C   0  0
  -11.7392    2.8600   -0.3380 C   0  0
  -10.4997    2.4185   -0.9794 C   0  0
  -13.1635    4.4823    0.6153 O   0  0
   -8.2411    6.6224   -6.4718 O   0  0
   -6.5560    4.4765   -1.3829 C   0  0
   -6.8770    3.0160   -1.1993 C   0  0  2  0  0  0
   -5.6172    2.0901   -1.6931 C   0  0  1  0  0  0
   -5.9771    0.6572   -1.3855 C   0  0
   -5.1593   -0.4374   -1.9644 C   0  0
   -5.3179   -1.8782   -1.5584 C   0  0
   -4.5185   -2.8024   -2.0873 C   0  0
   -3.4706   -2.4180   -3.0771 C   0  0
   -3.3535   -1.1422   -3.4274 C   0  0
   -4.2245   -0.1200   -2.8618 C   0  0
   -5.8714    5.0509   -0.5337 O   0  0
   -6.8415    0.4200   -0.5376 O   0  0
   -6.2809   -2.3205   -0.6311 O   0  0
   -2.5695   -3.3469   -3.6850 O   0  0
   -4.0618    1.1605   -3.2824 O   0  0
   -5.0812    2.1110   -3.1872 C   0  0  2  0  0  0
   -4.4155    3.3965   -3.6503 C   0  0
   -3.5479    4.0385   -2.8623 C   0  0
   -2.9025    5.2617   -3.3252 C   0  0
   -3.1653    5.7356   -4.5398 C   0  0
   -4.0993    5.0281   -5.4138 C   0  0
   -4.6923    3.9133   -4.9915 C   0  0
   -2.5493    6.9011   -4.9761 O   0  0
   -5.8696    7.2710   -2.2132 O   0  0
   -8.7413    4.2421   -5.4425 H   0  0
   -6.7896    7.9279   -4.5662 H   0  0
   -8.4068    1.5717   -1.8813 H   0  0
   -8.9839    5.4213   -1.0991 H   0  0
  -10.9517    6.1422   -0.0778 H   0  0
  -12.4988    2.1513   -0.1259 H   0  0
  -10.3770    1.3938   -1.2213 H   0  0
  -13.3176    5.8713    0.9510 C   0  0
   -7.8733    7.9542   -6.8723 C   0  0
   -6.9607    2.7730   -0.1321 H   0  0
   -4.7521    2.3545   -1.0730 H   0  0
   -4.6463   -3.8087   -1.7870 H   0  0
   -2.6130   -0.8620   -4.1326 H   0  0
   -6.8236   -1.5970   -0.2943 H   0  0
   -2.7249   -4.7148   -3.2795 C   0  0
   -5.8844    1.8211   -3.8788 H   0  0
   -3.3249    3.6643   -1.8972 H   0  0
   -2.2227    5.7731   -2.6922 H   0  0
   -4.3061    5.4041   -6.3829 H   0  0
   -5.3714    3.4021   -5.6241 H   0  0
   -1.9531    7.2442   -4.2641 H   0  0
   -5.6090    6.8697   -1.3788 H   0  0
   -8.2740    8.1552   -7.8764 H   0  0
   -6.7766    8.0430   -6.8930 H   0  0
   -8.2892    8.6825   -6.1610 H   0  0
  -14.2965    6.0241    1.4274 H   0  0
  -13.2581    6.4813    0.0375 H   0  0
  -12.5223    6.1736    1.6489 H   0  0
   -1.9851   -5.3355   -3.8049 H   0  0
   -3.7373   -5.0625   -3.5320 H   0  0
   -2.5655   -4.7986   -2.1942 H   0  0
  1  2  2  0
  2  3  1  0
  3  4  2  0
  4  5  1  0
  5  6  2  0
  6  1  1  0
  7  8  1  0
  8  9  1  0
  2  7  1  0
 10 11  2  0
 11 12  1  0
 12 13  2  0
 13 14  1  0
  9 10  1  0
  9 14  2  0
 12 15  1  0
  6 16  1  0
 17 18  1  0
 18 19  1  0
 19 20  1  0
 20 21  1  0
  3 17  1  0
 22 23  2  0
 23 24  1  0
 24 25  2  0
 25 26  1  0
 21 22  1  0
 21 26  2  0
 18  8  1  0
 17 27  2  0
 20 28  2  0
 22 29  1  0
 24 30  1  0
 31 32  1  0
 32 33  1  0
 26 31  1  0
 34 35  1  0
 35 36  2  0
 36 37  1  0
 37 38  2  0
 33 34  2  0
 33 38  1  0
 36 39  1  0
 32 19  1  0
 40  4  1  0
  1 41  1  0
  5 42  1  0
  8 43  1  0
 10 44  1  0
 11 45  1  0
 13 46  1  0
 14 47  1  0
 15 48  1  0
 16 49  1  0
 18 50  1  0
 19 51  1  0
 23 52  1  0
 25 53  1  0
 29 54  1  0
 30 55  1  0
 32 56  1  0
 34 57  1  0
 35 58  1  0
 37 59  1  0
 38 60  1  0
 39 61  1  0
 40 62  1  0
 49 63  1  0
 49 64  1  0
 49 65  1  0
 48 66  1  0
 48 67  1  0
 48 68  1  0
 55 69  1  0
 55 70  1  0
 55 71  1  0
M  END
> <Name>
MPR2023_4

> <Clean Energy>
70.2455

$$$$
Molecule
  DSViewer          3D                             0

 13 13  0  0  0  0  0  0  0  0999 V2000
   -2.5679    1.5944   -2.6662 C   0  0  1  0  0  0
   -2.4570    0.6456   -1.4388 C   0  0  1  0  0  0
   -1.0441    0.6892   -0.7940 C   0  0  2  0  0  0
    0.0653    0.4279   -1.8491 C   0  0  1  0  0  0
   -0.0426    1.4037   -3.0555 C   0  0  1  0  0  0
   -1.4525    1.3322   -3.7214 C   0  0  2  0  0  0
   -3.8553    1.4387   -3.2601 O   0  0
   -3.4240    1.0053   -0.4553 O   0  0
   -0.9796   -0.2884    0.2424 O   0  0
    1.3495    0.5403   -1.2400 O   0  0
    0.2414    2.7391   -2.6323 O   0  0
   -1.6285    2.2925   -4.7883 O   0  0
   -0.8506    2.0839   -5.9828 C   0  0
  1  2  1  0  0  0
  2  3  1  0  0  0
  3  4  1  0  0  0
  4  5  1  0  0  0
  5  6  1  0  0  0
  1  6  1  0  0  0
  1  7  1  0  0  0
  2  8  1  0  0  0
  3  9  1  0  0  0
  4 10  1  0  0  0
  5 11  1  0  0  0
  6 12  1  0  0  0
 12 13  1  0  0  0
M  END
> <Clean Energy>
3.60537

$$$$
KGG2007 - 5E2C
  SciTegic12132405553D

 44 45  0  0  0  0            999 V2000
    2.1542    1.7453    1.4961 C   0  0
    1.0251    2.2228    0.9371 C   0  0
   -0.0328    1.2768    0.5552 C   0  0
    0.1171   -0.0295    0.7562 C   0  0
    1.3363   -0.5369    1.3559 C   0  0
    2.3093    0.3101    1.7123 C   0  0
    3.5747   -0.2149    2.3548 C   0  0  2  0  0  0
    1.4915   -1.9852    1.6059 C   0  0
    2.6688   -2.4400    2.1375 O   0  0
    3.7892   -1.6717    1.8811 C   0  0  2  0  0  0
    0.5493   -2.7593    1.4086 O   0  0
    0.7690    3.6159    0.6826 O   0  0
    1.8038    4.5427    1.0611 C   0  0
    3.5393   -0.0225    3.8320 O   0  0
    2.5471   -0.6198    4.6570 C   0  0
    1.6461   -1.3318    4.2181 O   0  0
    2.6033   -0.3672    6.1299 C   0  0
    5.0412   -2.2665    2.5269 C   0  0
    5.2384   -3.6879    2.0043 C   0  0
    6.4841   -4.2908    2.6511 C   0  0
    6.6762   -5.7160    2.1284 C   0  0
    7.9250   -6.3248    2.7786 C   0  0
    2.9445    2.3810    1.7909 H   0  0
   -0.9268    1.6402    0.1162 H   0  0
   -0.6550   -0.7008    0.4785 H   0  0
    4.4265    0.4012    2.0372 H   0  0
    3.9085   -1.6480    0.7886 H   0  0
    1.4838    5.5653    0.8151 H   0  0
    2.7285    4.3082    0.5133 H   0  0
    1.9877    4.4689    2.1435 H   0  0
    1.7810   -0.8813    6.6478 H   0  0
    2.5611    0.7176    6.3047 H   0  0
    3.5786   -0.7051    6.5091 H   0  0
    4.9150   -2.2909    3.6183 H   0  0
    5.9160   -1.6529    2.2718 H   0  0
    4.3609   -4.2978    2.2604 H   0  0
    5.3635   -3.6649    0.9130 H   0  0
    7.3629   -3.6824    2.3960 H   0  0
    6.3569   -4.3131    3.7424 H   0  0
    5.7949   -6.3213    2.3838 H   0  0
    6.8020   -5.6920    1.0367 H   0  0
    8.0691   -7.3497    2.4078 H   0  0
    7.7950   -6.3433    3.8702 H   0  0
    8.8030   -5.7143    2.5240 H   0  0
  1  2  2  0
  2  3  1  0
  3  4  2  0
  4  5  1  0
  5  6  2  0
  1  6  1  0
  8  9  1  0
  9 10  1  0
  7 10  1  0
  5  8  1  0
  7  6  1  0
  8 11  2  0
  2 12  1  0
 12 13  1  0
 14 15  1  0
 15 17  1  0
 15 16  2  0
 18 19  1  0
 19 20  1  0
 20 21  1  0
 21 22  1  0
  7 14  1  0
 10 18  1  0
  1 23  1  0
  3 24  1  0
  4 25  1  0
  7 26  1  0
 10 27  1  0
 13 28  1  0
 13 29  1  0
 13 30  1  0
 17 31  1  0
 17 32  1  0
 17 33  1  0
 18 34  1  0
 18 35  1  0
 19 36  1  0
 19 37  1  0
 20 38  1  0
 20 39  1  0
 21 40  1  0
 21 41  1  0
 22 42  1  0
 22 43  1  0
 22 44  1  0
M  END
> <Name>
KGG2007 - 5E2C

> <Clean Energy>
31.957799911499

$$$$
KGG2007 - B2
  SciTegic12132405553D

 32 34  0  0  0  0            999 V2000
   -2.7543    1.2605   -4.7008 C   0  0
   -2.5113    2.1421   -5.8410 C   0  0
   -1.5118    3.0197   -5.7988 C   0  0
   -0.6619    3.0974   -4.6120 C   0  0
   -0.8951    2.2867   -3.5788 C   0  0
   -1.9757    1.3379   -3.6242 C   0  0
   -2.1993    0.5197   -2.5631 O   0  0
   -0.0879    2.3244   -2.3894 C   0  0
   -0.3994    1.4065   -1.2932 C   0  0
   -1.4321    0.5419   -1.4093 C   0  0
   -1.5727   -1.4819    1.8562 C   0  0
   -1.1527   -0.5856    0.9657 C   0  0
   -1.8371   -0.4427   -0.3436 C   0  0
   -2.8796   -1.2284   -0.6106 C   0  0
   -3.3451   -2.2135    0.3619 C   0  0
   -2.7363   -2.3464    1.5366 C   0  0
   -0.8893   -1.5740    3.0766 O   0  0
   -3.2230   -3.3070    2.4343 O   0  0
   -3.3224    2.0631   -6.9652 O   0  0
    0.3799    4.0149   -4.5729 O   0  0
    0.8546    3.1177   -2.2906 O   0  0
    0.3952    1.4647   -0.1587 O   0  0
   -3.5498    0.5601   -4.7310 H   0  0
   -1.3321    3.6611   -6.6238 H   0  0
   -0.3296    0.0171    1.2071 H   0  0
   -3.3792   -1.1388   -1.5411 H   0  0
   -4.1767   -2.8288    0.1292 H   0  0
   -1.2809   -2.2598    3.6487 H   0  0
   -2.7016   -3.3153    3.2584 H   0  0
   -4.0081    1.3635   -6.8262 H   0  0
    0.3996    4.5247   -5.4200 H   0  0
    1.0899    2.1565   -0.2705 H   0  0
  1  2  1  0
  3  4  1  0
  5  6  1  0
  8  9  1  0
  7 10  1  0
  5  8  1  0
  7  6  1  0
 12 13  1  0
 14 15  1  0
 11 16  1  0
 10 13  1  0
 11 17  1  0
 16 18  1  0
  2 19  1  0
  4 20  1  0
  9 22  1  0
  8 21  2  0
  2  3  2  0
  1  6  2  0
  4  5  2  0
  9 10  2  0
 11 12  2  0
 15 16  2  0
 13 14  2  0
  1 23  1  0
  3 24  1  0
 12 25  1  0
 14 26  1  0
 15 27  1  0
 17 28  1  0
 18 29  1  0
 19 30  1  0
 20 31  1  0
 22 32  1  0
M  END
> <Name>
KGG2007 - B2

> <Clean Energy>
-2.23333

$$$$
KGG2007 - P2A
  SciTegic12132405553D

 79 83  0  0  0  0            999 V2000
   -9.4416   -0.9733    3.0118 C   0  0
  -10.7582   -1.5836    3.6064 C   0  0
  -10.6928   -3.1096    3.5803 C   0  0
   -9.4855   -3.8283    4.1421 C   0  0
   -8.1584   -3.0750    3.5665 C   0  0  1  0  0  0
   -8.1608   -1.4741    3.7595 C   0  0  1  0  0  0
   -6.8335   -0.9431    2.9571 C   0  0  2  0  0  0
   -6.8139   -3.7233    4.1225 C   0  0
   -5.5929   -3.1468    3.3152 C   0  0
   -5.4178   -1.6028    3.4393 C   0  0  1  0  0  0
   -5.5557    1.1617    2.1357 C   0  0
   -6.7166    0.6296    3.0177 C   0  0
   -4.2149   -1.0387    2.4370 C   0  0  1  0  0  0
   -4.1736    0.5455    2.5502 C   0  0  1  0  0  0
   -2.9539    1.1200    1.7489 C   0  0
   -2.7808   -1.6328    2.8534 C   0  0
   -1.6611   -1.0811    1.9290 C   0  0
   -1.5946    0.4532    2.0053 C   0  0  1  0  0  0
   -1.8528    2.8537    0.2995 C   0  0
   -3.0458    2.2468    1.0040 C   0  0
   -0.4907    0.8698    1.0048 C   0  0
   -0.4893    2.3933    0.9393 C   0  0
   -1.9425    4.3786    0.3090 C   0  0
   -1.9635    2.4406   -1.1954 C   0  0
   -1.1780    0.8564    3.4096 C   0  0
   -1.8341    1.8882    4.0740 O   0  0
   -0.2389    0.2729    3.9606 O   0  0
  -11.6764   -3.7598    3.2110 O   0  0
   -9.6275   -3.9280    5.6988 C   0  0
   -9.4992   -5.3005    3.6897 C   0  0
   -8.2439   -0.9116    5.2698 C   0  0
   -4.9795   -1.2833    4.9550 C   0  0
   -4.5099   -1.4719    0.9058 C   0  0
   -9.3687   -1.3053    1.9668 H   0  0
   -9.4939    0.1214    3.0429 H   0  0
  -10.8432   -1.2610    4.6488 H   0  0
  -11.6380   -1.2333    3.0508 H   0  0
   -8.1804   -3.2316    2.4785 H   0  0
   -6.9851   -1.2597    1.9218 H   0  0
   -6.8269   -4.8016    3.9411 H   0  0
   -6.7154   -3.5400    5.2005 H   0  0
   -4.6656   -3.6392    3.6308 H   0  0
   -5.7974   -3.3982    2.2702 H   0  0
   -5.7623    0.9208    1.0870 H   0  0
   -5.5146    2.2526    2.2481 H   0  0
   -6.5432    0.9387    4.0552 H   0  0
   -7.6433    1.0869    2.6572 H   0  0
   -3.9783    0.7903    3.5944 H   0  0
   -2.8025   -2.7263    2.7728 H   0  0
   -2.5426   -1.3539    3.8812 H   0  0
   -0.6858   -1.5011    2.2068 H   0  0
   -1.8840   -1.3675    0.9005 H   0  0
   -3.9677    2.7358    0.8882 H   0  0
   -0.7087    0.4812    0.0114 H   0  0
    0.4676    0.4575    1.3468 H   0  0
   -0.3909    2.7853    1.9564 H   0  0
    0.3333    2.7787    0.3228 H   0  0
   -1.0975    4.7968   -0.2549 H   0  0
   -1.9072    4.7380    1.3470 H   0  0
   -2.8877    4.6903   -0.1571 H   0  0
   -1.1302    2.8866   -1.7559 H   0  0
   -2.9158    2.8096   -1.5988 H   0  0
   -1.9307    1.3496   -1.2974 H   0  0
   -1.4300    2.0133    4.9660 H   0  0
   -8.7713   -4.4778    6.1110 H   0  0
  -10.5523   -4.4723    5.9319 H   0  0
   -9.6800   -2.9578    6.1549 H   0  0
   -8.6375   -5.8334    4.1088 H   0  0
   -9.4598   -5.3423    2.5928 H   0  0
  -10.4245   -5.7768    4.0425 H   0  0
   -8.2519    0.1837    5.2500 H   0  0
   -7.4288   -1.2445    5.8603 H   0  0
   -9.1485   -1.2371    5.7517 H   0  0
   -4.8651   -0.2060    5.1056 H   0  0
   -4.0330   -1.7776    5.1813 H   0  0
   -5.7008   -1.6559    5.6486 H   0  0
   -4.5170   -2.5648    0.8286 H   0  0
   -3.7398   -1.0781    0.2373 H   0  0
   -5.4757   -1.0897    0.5697 H   0  0
  1  2  1  0
  2  3  1  0
  3  4  1  0
  4  5  1  0
  5  6  1  0
  1  6  1  0
  8  9  1  0
  9 10  1  0
  7 10  1  0
  5  8  1  0
  7  6  1  0
 11 12  1  0
 13 14  1  0
 14 11  1  0
  7 12  1  0
 10 13  1  0
 16 17  1  0
 17 18  1  0
 15 18  1  0
 13 16  1  0
 15 14  1  0
 19 20  1  0
 21 22  1  0
 19 22  1  0
 18 21  1  0
 19 23  1  0
 19 24  1  0
 25 26  1  0
 25 27  2  0
 20 15  2  0
  3 28  2  0
  4 29  1  0
  4 30  1  0
  6 31  1  0
 13 33  1  0
 10 32  1  0
 18 25  1  0
  1 34  1  0
  1 35  1  0
  2 36  1  0
  2 37  1  0
  5 38  1  0
  7 39  1  0
  8 40  1  0
  8 41  1  0
  9 42  1  0
  9 43  1  0
 11 44  1  0
 11 45  1  0
 12 46  1  0
 12 47  1  0
 14 48  1  0
 16 49  1  0
 16 50  1  0
 17 51  1  0
 17 52  1  0
 20 53  1  0
 21 54  1  0
 21 55  1  0
 22 56  1  0
 22 57  1  0
 23 58  1  0
 23 59  1  0
 23 60  1  0
 24 61  1  0
 24 62  1  0
 24 63  1  0
 26 64  1  0
 29 65  1  0
 29 66  1  0
 29 67  1  0
 30 68  1  0
 30 69  1  0
 30 70  1  0
 31 71  1  0
 31 72  1  0
 31 73  1  0
 32 74  1  0
 32 75  1  0
 32 76  1  0
 33 77  1  0
 33 78  1  0
 33 79  1  0
M  END
> <Name>
KGG2007 - P2A

> <Clean Energy>
94.1793

$$$$
DPO2017 - 22
  SciTegic12132405553D

 36 35  0  0  0  0            999 V2000
   -5.7192    6.2366    1.2946 C   0  0
   -4.2136    6.1377    1.0095 C   0  0
   -3.8515    4.7643    0.8990 O   0  0
   -2.4895    4.6462    0.6375 C   0  0
   -1.8029    3.3248    0.4587 C   0  0
   -2.3903    2.1154    0.5428 C   0  0
   -1.5571    0.9351    0.3254 C   0  0
   -0.2043    1.0823    0.0425 O   0  0
    0.3910   -0.2015   -0.1347 C   0  0
    1.8851   -0.0291   -0.4477 C   0  0
   -3.8566    1.8918    0.8415 C   0  0
   -4.5760    1.9300   -0.4700 C   0  0
   -5.3666    2.8488   -0.7137 O   0  0
   -4.3387    0.9373   -1.4124 O   0  0
   -5.1181    1.1832   -2.5791 C   0  0
   -4.8428    0.0796   -3.6117 C   0  0
   -1.8125    5.6757    0.5377 O   0  0
   -2.0587   -0.1933    0.3871 O   0  0
   -6.0074    7.2942    1.3810 H   0  0
   -5.9479    5.7152    2.2352 H   0  0
   -6.2781    5.7692    0.4708 H   0  0
   -3.9830    6.6558    0.0677 H   0  0
   -3.6516    6.6016    1.8328 H   0  0
   -0.7653    3.3469    0.2443 H   0  0
    0.2742   -0.7904    0.7863 H   0  0
   -0.1013   -0.7219   -0.9689 H   0  0
    2.3471   -1.0174   -0.5851 H   0  0
    2.3756    0.4929    0.3865 H   0  0
    1.9999    0.5612   -1.3683 H   0  0
   -3.9556    0.8770    1.2497 H   0  0
   -4.2577    2.6696    1.4986 H   0  0
   -6.1853    1.1822   -2.3150 H   0  0
   -4.8448    2.1600   -3.0034 H   0  0
   -5.4419    0.2648   -4.5149 H   0  0
   -5.1142   -0.8966   -3.1845 H   0  0
   -3.7745    0.0817   -3.8725 H   0  0
  1  2  1  0
  2  3  1  0
  3  4  1  0
  4  5  1  0
  6  7  1  0
  7  8  1  0
  8  9  1  0
  9 10  1  0
  6 11  1  0
 11 12  1  0
 12 14  1  0
 14 15  1  0
 15 16  1  0
  4 17  2  0
  7 18  2  0
 12 13  2  0
  5  6  2  0
  1 19  1  0
  1 20  1  0
  1 21  1  0
  2 22  1  0
  2 23  1  0
  5 24  1  0
  9 25  1  0
  9 26  1  0
 10 27  1  0
 10 28  1  0
 10 29  1  0
 11 30  1  0
 11 31  1  0
 15 32  1  0
 15 33  1  0
 16 34  1  0
 16 35  1  0
 16 36  1  0
M  END
> <Name>
DPO2017 - 22

> <Clean Energy>
20.6303997039795

$$$$
DPO2017 - 23
  SciTegic12132405553D

 54 53  0  0  0  0            999 V2000
   -8.5874    1.7158   -1.0347 C   0  0
   -7.3389    1.9986   -1.8704 C   0  0
   -6.2119    1.5282   -1.1484 O   0  0
   -5.0363    1.7802   -1.8371 C   0  0
   -3.6899    1.4102   -1.2918 C   0  0
   -3.4579    0.7687   -0.1266 C   0  0
   -2.0685    0.5017    0.2320 C   0  0
   -1.0438    0.9070   -0.6153 O   0  0
    0.2158    0.5381   -0.0600 C   0  0
    1.3346    0.9875   -1.0043 C   0  0
   -4.5323    0.2902    0.8403 C   0  0
   -4.9581    1.4505    1.6975 C   0  0
   -4.8203    1.3955    2.9245 O   0  0
   -5.5206    2.5708    1.1062 O   0  0
   -5.8747    3.5307    2.0875 C   0  0
   -6.4830    4.7456    1.3841 C   0  0
   -5.0949    2.3536   -2.9306 O   0  0
   -1.8063   -0.0846    1.2884 O   0  0
    2.6862    0.5887   -0.4057 C   0  0
    3.8059    1.0389   -1.3533 C   0  0
   -6.8741    5.7902    2.4319 C   0  0
   -7.4798    7.0082    1.7220 C   0  0
   -8.6862    0.2069   -0.7896 C   0  0
   -9.9335   -0.0841    0.0530 C   0  0
   -8.5096    2.2394   -0.0698 H   0  0
   -9.4807    2.0634   -1.5718 H   0  0
   -7.4075    1.4745   -2.8336 H   0  0
   -7.2472    3.0805   -2.0412 H   0  0
   -2.8462    1.6783   -1.8739 H   0  0
    0.3443    1.0241    0.9174 H   0  0
    0.2582   -0.5531    0.0637 H   0  0
    1.2085    0.5015   -1.9820 H   0  0
    1.2956    2.0789   -1.1289 H   0  0
   -5.4030   -0.0114    0.2478 H   0  0
   -4.1519   -0.5147    1.4840 H   0  0
   -6.6114    3.0981    2.7787 H   0  0
   -4.9800    3.8382    2.6464 H   0  0
   -5.7452    5.1765    0.6927 H   0  0
   -7.3762    4.4358    0.8213 H   0  0
    2.7242   -0.5028   -0.2814 H   0  0
    2.8119    1.0749    0.5721 H   0  0
    4.7805    0.7559   -0.9306 H   0  0
    3.7615    2.1304   -1.4775 H   0  0
    3.6736    0.5529   -2.3306 H   0  0
   -7.6133    5.3585    3.1215 H   0  0
   -5.9813    6.0973    2.9947 H   0  0
   -7.7645    7.7639    2.4679 H   0  0
   -8.3692    6.6957    1.1564 H   0  0
   -6.7371    7.4339    1.0319 H   0  0
   -8.7596   -0.3170   -1.7529 H   0  0
   -7.7899   -0.1366   -0.2511 H   0  0
  -10.0104   -1.1659    0.2330 H   0  0
  -10.8266    0.2638   -0.4854 H   0  0
   -9.8551    0.4443    1.0139 H   0  0
  1  2  1  0
  2  3  1  0
  3  4  1  0
  4  5  1  0
  6  7  1  0
  7  8  1  0
  8  9  1  0
  9 10  1  0
  6 11  1  0
 11 12  1  0
 12 14  1  0
 14 15  1  0
 15 16  1  0
  4 17  2  0
  7 18  2  0
 12 13  2  0
  5  6  2  0
 19 20  1  0
 10 19  1  0
 16 21  1  0
 21 22  1  0
  1 23  1  0
 23 24  1  0
  1 25  1  0
  1 26  1  0
  2 27  1  0
  2 28  1  0
  5 29  1  0
  9 30  1  0
  9 31  1  0
 10 32  1  0
 10 33  1  0
 11 34  1  0
 11 35  1  0
 15 36  1  0
 15 37  1  0
 16 38  1  0
 16 39  1  0
 19 40  1  0
 19 41  1  0
 20 42  1  0
 20 43  1  0
 20 44  1  0
 21 45  1  0
 21 46  1  0
 22 47  1  0
 22 48  1  0
 22 49  1  0
 23 50  1  0
 23 51  1  0
 24 52  1  0
 24 53  1  0
 24 54  1  0
M  END
> <Name>
DPO2017 - 23

> <Clean Energy>
13.4711

$$$$
DPO2017 - 24
  SciTegic12132405553D

 90 89  0  0  0  0            999 V2000
   -8.6358    1.3425   -0.3784 C   0  0
   -7.3859    1.5275   -1.2521 C   0  0
   -6.2103    1.1524   -0.5275 O   0  0
   -5.0901    1.3450   -1.3419 C   0  0
   -3.6773    1.1749   -0.8575 C   0  0
   -3.2791    0.9775    0.4177 C   0  0
   -1.8362    0.7788    0.6436 C   0  0
   -0.9573    0.7621   -0.4444 O   0  0
    0.3718    0.4290   -0.0161 C   0  0
    1.2972    0.3780   -1.2455 C   0  0
   -4.1986    0.8903    1.6470 C   0  0
   -5.0918    2.1032    1.8981 C   0  0
   -5.8890    2.0691    2.8423 O   0  0
   -5.1447    3.1693    0.9955 O   0  0
   -6.2437    4.0195    1.3545 C   0  0
   -6.4363    5.1117    0.2936 C   0  0
   -5.2649    1.6813   -2.5178 O   0  0
   -1.4138    0.5578    1.7837 O   0  0
    2.7166   -0.0333   -0.8226 C   0  0
    3.6041   -0.0889   -2.0743 C   0  0
   -7.7066    5.9027    0.6346 C   0  0
   -7.9606    6.9647   -0.4411 C   0  0
   -8.8527   -0.1340   -0.0341 C   0  0
  -10.1174   -0.2226    0.8291 C   0  0
  -10.4572   -1.6801    1.1478 C   0  0
  -11.7236   -1.6913    2.0127 C   0  0
  -12.1330   -3.1327    2.3229 C   0  0
  -13.3960   -3.1091    3.1979 C   0  0
    5.0205   -0.5316   -1.6911 C   0  0
    5.8810   -0.5823   -2.9593 C   0  0
    7.2980   -1.0396   -2.5985 C   0  0
    8.1500   -1.0849   -3.8760 C   0  0
   -9.2797    7.6824   -0.1287 C   0  0
   -9.5603    8.7283   -1.2122 C   0  0
  -10.9010    9.4105   -0.9153 C   0  0
  -11.1884   10.4554   -2.0032 C   0  0
   -8.5241    1.9299    0.5451 H   0  0
   -9.5153    1.6975   -0.9313 H   0  0
   -7.4815    0.9256   -2.1653 H   0  0
   -7.2969    2.5904   -1.5199 H   0  0
   -2.9170    1.2206   -1.5946 H   0  0
    0.7399    1.1783    0.6988 H   0  0
    0.3572   -0.5601    0.4631 H   0  0
    0.9115   -0.3649   -1.9570 H   0  0
    1.3253    1.3655   -1.7270 H   0  0
   -4.9017    0.0602    1.4913 H   0  0
   -3.6317    0.6609    2.5597 H   0  0
   -7.1533    3.4048    1.3718 H   0  0
   -6.0866    4.4665    2.3457 H   0  0
   -5.5591    5.7732    0.2591 H   0  0
   -6.5780    4.6360   -0.6875 H   0  0
    2.6829   -1.0270   -0.3539 H   0  0
    3.1239    0.6963   -0.1090 H   0  0
    3.1829   -0.8117   -2.7865 H   0  0
    3.6418    0.9051   -2.5408 H   0  0
   -8.5568    5.2056    0.6504 H   0  0
   -7.6066    6.3803    1.6189 H   0  0
   -7.1304    7.6845   -0.4614 H   0  0
   -8.0468    6.4751   -1.4208 H   0  0
   -8.9974   -0.7021   -0.9637 H   0  0
   -7.9899   -0.5372    0.5157 H   0  0
   -9.9576    0.3351    1.7626 H   0  0
  -10.9599    0.2192    0.2803 H   0  0
  -10.6438   -2.2236    0.2103 H   0  0
   -9.6295   -2.1552    1.6913 H   0  0
  -11.5263   -1.1535    2.9506 H   0  0
  -12.5406   -1.1945    1.4713 H   0  0
  -12.3442   -3.6630    1.3825 H   0  0
  -11.3212   -3.6418    2.8588 H   0  0
  -13.7079   -4.1388    3.4230 H   0  0
  -14.2032   -2.5891    2.6615 H   0  0
  -13.1782   -2.5775    4.1356 H   0  0
    5.4544    0.1823   -0.9777 H   0  0
    4.9810   -1.5305   -1.2340 H   0  0
    5.4401   -1.2923   -3.6730 H   0  0
    5.9215    0.4171   -3.4143 H   0  0
    7.2556   -2.0417   -2.1478 H   0  0
    7.7418   -0.3332   -1.8835 H   0  0
    9.1690   -1.4149   -3.6270 H   0  0
    8.1878   -0.0819   -4.3247 H   0  0
    7.6999   -1.7893   -4.5905 H   0  0
  -10.0950    6.9449   -0.1202 H   0  0
   -9.2178    8.1712    0.8530 H   0  0
   -8.7551    9.4758   -1.2216 H   0  0
   -9.6147    8.2346   -2.1925 H   0  0
  -11.7007    8.6550   -0.9122 H   0  0
  -10.8559    9.9011    0.0664 H   0  0
  -12.1524   10.9435   -1.7980 H   0  0
  -11.2293    9.9594   -2.9840 H   0  0
  -10.3881   11.2084   -2.0062 H   0  0
  1  2  1  0
  2  3  1  0
  3  4  1  0
  4  5  1  0
  6  7  1  0
  7  8  1  0
  8  9  1  0
  9 10  1  0
  6 11  1  0
 11 12  1  0
 12 14  1  0
 14 15  1  0
 15 16  1  0
  4 17  2  0
  7 18  2  0
 12 13  2  0
  5  6  2  0
 19 20  1  0
 10 19  1  0
 16 21  1  0
 21 22  1  0
  1 23  1  0
 23 24  1  0
 24 25  1  0
 25 26  1  0
 26 27  1  0
 27 28  1  0
 20 29  1  0
 29 30  1  0
 31 32  1  0
 30 31  1  0
 22 33  1  0
 33 34  1  0
 34 35  1  0
 35 36  1  0
  1 37  1  0
  1 38  1  0
  2 39  1  0
  2 40  1  0
  5 41  1  0
  9 42  1  0
  9 43  1  0
 10 44  1  0
 10 45  1  0
 11 46  1  0
 11 47  1  0
 15 48  1  0
 15 49  1  0
 16 50  1  0
 16 51  1  0
 19 52  1  0
 19 53  1  0
 20 54  1  0
 20 55  1  0
 21 56  1  0
 21 57  1  0
 22 58  1  0
 22 59  1  0
 23 60  1  0
 23 61  1  0
 24 62  1  0
 24 63  1  0
 25 64  1  0
 25 65  1  0
 26 66  1  0
 26 67  1  0
 27 68  1  0
 27 69  1  0
 28 70  1  0
 28 71  1  0
 28 72  1  0
 29 73  1  0
 29 74  1  0
 30 75  1  0
 30 76  1  0
 31 77  1  0
 31 78  1  0
 32 79  1  0
 32 80  1  0
 32 81  1  0
 33 82  1  0
 33 83  1  0
 34 84  1  0
 34 85  1  0
 35 86  1  0
 35 87  1  0
 36 88  1  0
 36 89  1  0
 36 90  1  0
M  END
> <Name>
DPO2017 - 24

> <Clean Energy>
9.09987

$$$$
DCE2007_C1
  SciTegic12132405553D

 27 27  0  0  0  0            999 V2000
   -2.6049    1.4276   -2.6868 C   0  0  1  0  0  0
   -2.3708    0.5491   -1.4415 C   0  0  1  0  0  0
   -1.0275    0.9098   -0.7810 C   0  0  2  0  0  0
    0.1110    0.6797   -1.7921 C   0  0  1  0  0  0
   -0.0885    1.5680   -3.0463 C   0  0  1  0  0  0
   -1.4673    1.1942   -3.7036 C   0  0  2  0  0  0
   -3.8482    1.0698   -3.2823 O   0  0
   -3.4272    0.7633   -0.5101 O   0  0
   -0.8241    0.0833    0.3634 O   0  0
    1.3603    0.9995   -1.1848 O   0  0
   -0.0391    2.9852   -2.7002 O   0  0
   -1.7474    1.9945   -4.8850 O   0  0
   -0.8304    1.7572   -5.9747 C   0  0
   -2.6278    2.4861   -2.3952 H   0  0
   -2.3536   -0.5073   -1.7436 H   0  0
   -1.0387    1.9641   -0.4743 H   0  0
    0.1073   -0.3770   -2.0938 H   0  0
    0.7280    1.3673   -3.7512 H   0  0
   -1.4636    0.1306   -3.9792 H   0  0
   -3.8213    0.1163   -3.5435 H   0  0
   -3.4367    1.7152   -0.2425 H   0  0
   -1.5572    0.2311    1.0101 H   0  0
    1.3570    1.9499   -0.9115 H   0  0
   -0.7362    3.2484   -2.0630 H   0  0
   -1.1327    2.3675   -6.8373 H   0  0
   -0.8645    0.6939   -6.2515 H   0  0
    0.1935    2.0285   -5.6892 H   0  0
  1  2  1  0
  2  3  1  0
  3  4  1  0
  4  5  1  0
  5  6  1  0
  1  6  1  0
  1  7  1  0
  2  8  1  0
  3  9  1  0
  4 10  1  0
  5 11  1  0
  6 12  1  0
 12 13  1  0
  1 14  1  0
  2 15  1  0
  3 16  1  0
  4 17  1  0
  5 18  1  0
  6 19  1  0
  7 20  1  0
  8 21  1  0
  9 22  1  0
 10 23  1  0
 11 24  1  0
 13 25  1  0
 13 26  1  0
 13 27  1  0
M  END
> <Name>
DCE2007_C1

> <Clean Energy>
-4.64249992370605

$$$$
DCE2007_C1TP
  SciTegic12132405553D

 52 52  0  0  0  0            999 V2000
   -7.3715    2.8491    6.9381 C   0  0  1  0  0  0
   -7.9514    1.9247    8.0136 C   0  0  1  0  0  0
   -7.1835    2.1383    9.3710 C   0  0  2  0  0  0
   -5.6681    1.7666    9.1489 C   0  0  1  0  0  0
   -5.0761    2.7167    8.0690 C   0  0  1  0  0  0
   -5.8622    2.4838    6.7093 C   0  0  2  0  0  0
   -8.1820    2.6110    5.7384 O   0  0
   -9.3710    2.2925    8.1183 O   0  0
   -7.7838    1.2840   10.3901 O   0  0
   -4.9360    1.9323   10.3952 O   0  0
   -5.2417    4.0757    8.6509 O   0  0
   -5.3223    3.2340    5.6246 O   0  0
   -4.1122    2.5957    5.1215 C   0  0
   -4.5903    5.2588    8.1645 C   0  0
   -4.8634    6.3261    8.7239 O   0  0
   -3.5312    5.2895    7.1070 C   0  0
   -3.5970    1.3960   10.5253 C   0  0
   -2.9030    0.5181    9.4853 C   0  0
   -3.0039    1.5966   11.5906 O   0  0
   -7.5752    1.5494   11.7984 C   0  0
   -8.0723    0.7573   12.6060 O   0  0
   -6.8984    2.7971   12.3616 C   0  0
  -10.3276    1.3889    8.7192 C   0  0
  -10.0319   -0.0528    9.1221 C   0  0
  -11.4951    1.7803    8.8212 O   0  0
   -8.1761    3.5708    4.6544 C   0  0
   -7.5111    4.9463    4.7106 C   0  0
   -8.8384    3.2986    3.6475 O   0  0
   -7.4836    3.8908    7.2641 H   0  0
   -7.8553    0.8886    7.6658 H   0  0
   -7.2927    3.1894    9.6631 H   0  0
   -5.6085    0.7183    8.8286 H   0  0
   -4.0230    2.4750    7.9379 H   0  0
   -5.7978    1.4268    6.4174 H   0  0
   -3.7191    3.1818    4.2795 H   0  0
   -4.3545    1.5804    4.7784 H   0  0
   -3.3504    2.5412    5.9097 H   0  0
   -4.0300    5.3062    6.1287 H   0  0
   -2.9169    4.3795    7.1541 H   0  0
   -2.9231    6.1998    7.2031 H   0  0
   -2.0172    0.0336    9.9196 H   0  0
   -2.5951    1.1533    8.6427 H   0  0
   -3.6127   -0.2209    9.0852 H   0  0
   -7.2478    2.9863   13.3863 H   0  0
   -7.0674    3.6629   11.7065 H   0  0
   -5.8168    2.6137   12.3974 H   0  0
  -10.9580   -0.6446    9.1132 H   0  0
   -9.6403   -0.0480   10.1476 H   0  0
   -9.2615   -0.4907    8.4728 H   0  0
   -7.9762    5.6220    3.9793 H   0  0
   -6.4525    4.8280    4.4468 H   0  0
   -7.5527    5.3573    5.7292 H   0  0
  1  2  1  0
  2  3  1  0
  3  4  1  0
  4  5  1  0
  5  6  1  0
  1  6  1  0
  1  7  1  0
  2  8  1  0
  3  9  1  0
  4 10  1  0
  5 11  1  0
  6 12  1  0
 12 13  1  0
 11 14  1  0
 14 16  1  0
 10 17  1  0
 17 18  1  0
  9 20  1  0
 20 22  1  0
  8 23  1  0
 23 24  1  0
  7 26  1  0
 26 27  1  0
 26 28  2  0
 23 25  2  0
 20 21  2  0
 17 19  2  0
 14 15  2  0
  1 29  1  0
  2 30  1  0
  3 31  1  0
  4 32  1  0
  5 33  1  0
  6 34  1  0
 13 35  1  0
 13 36  1  0
 13 37  1  0
 16 38  1  0
 16 39  1  0
 16 40  1  0
 18 41  1  0
 18 42  1  0
 18 43  1  0
 22 44  1  0
 22 45  1  0
 22 46  1  0
 24 47  1  0
 24 48  1  0
 24 49  1  0
 27 50  1  0
 27 51  1  0
 27 52  1  0
M  END
> <Name>
DCE2007_C1TP

> <Clean Energy>
94.9761

$$$$
DCE2007_C2
  SciTegic12132405553D

 73 77  0  0  0  0            999 V2000
    4.9892    3.2032    0.2015 C   0  0  1  0  0  0
    6.1956    4.1417    0.2470 C   0  0  1  0  0  0
    6.1581    4.9483    1.5394 C   0  0  2  0  0  0
    4.8246    5.7264    1.6036 C   0  0  1  0  0  0
    3.7472    4.7891    1.5587 O   0  0
    3.7451    4.0845    0.2974 C   0  0  2  0  0  0
    4.9986    2.4881   -1.0311 O   0  0
    5.0096    2.4927    1.0402 H   0  0
    7.4038    3.3892    0.1732 O   0  0
    6.1376    4.8326   -0.6045 H   0  0
    6.2189    4.2690    2.4017 H   0  0
    7.2577    5.8570    1.5720 O   0  0
    4.8449    6.5065    2.8239 O   0  0
    4.7292    6.4079    0.7478 H   0  0
    2.4542    3.2891    0.1828 C   0  0
    3.7562    4.8081   -0.5292 H   0  0
    1.4051    4.2788    0.2516 O   0  0
   -0.4294    2.7233    0.9711 C   0  0  2  0  0  0
    0.0765    3.8111   -0.0408 C   0  0  2  0  0  0
    0.0913    3.2516   -1.4128 O   0  0
   -1.2143    2.8274   -1.9103 C   0  0  1  0  0  0
   -1.7863    1.7801   -0.8805 C   0  0  2  0  0  0
   -1.8748    2.3054    0.5963 C   0  0  2  0  0  0
    0.2301    1.8489    0.9005 H   0  0
   -0.4173    3.2251    2.3077 O   0  0
   -0.5944    4.6771    0.0116 H   0  0
   -2.1212    4.0678   -2.2101 C   0  0
   -1.0913    2.3184   -2.8762 H   0  0
   -2.7686    1.4266   -1.2226 H   0  0
   -0.8710    0.6850   -0.8617 O   0  0
   -2.8041    3.4053    0.8155 O   0  0
   -2.2100    1.4887    1.2493 H   0  0
    3.6716    7.1760    3.3342 C   0  0
    2.6931    8.6213    4.9320 O   0  0
    1.4213    8.4028    4.5074 C   0  0
    1.1811    7.6220    3.4637 C   0  0
    2.2835    7.0024    2.7789 C   0  0
    3.8029    8.0041    4.3941 C   0  0
    0.3090    9.0340    5.2165 C   0  0
   -0.9439    8.8194    4.8205 C   0  0
   -1.2107    7.9526    3.6731 C   0  0
   -0.1999    7.3814    3.0227 C   0  0
    5.1184    8.3593    5.0573 C   0  0
    6.2839    9.6494    6.7603 C   0  0
    5.0636    9.2145    6.0798 C   0  0
    6.4533    7.8568    4.6268 C   0  0
    7.5568    8.2617    5.2493 C   0  0
    7.4701    9.1996    6.3637 C   0  0
    8.6248    9.6286    7.0114 O   0  0
    8.7943    7.7878    4.8291 O   0  0
   -1.9984    9.4172    5.4998 O   0  0
   -0.4585    6.5497    1.9361 O   0  0
    2.0351    6.3265    1.7812 O   0  0
    4.9778    3.1314   -1.7817 H   0  0
    7.4488    2.7693    0.9432 H   0  0
    8.1049    5.3491    1.5331 H   0  0
    2.4323    2.7789   -0.7900 H   0  0
    2.3697    2.5541    0.9949 H   0  0
    0.5034    3.4921    2.5513 H   0  0
   -3.0868    3.7225   -2.6031 H   0  0
   -1.6254    4.6956   -2.9645 H   0  0
   -2.2893    4.6621   -1.3261 H   0  0
   -0.7908    0.3110   -1.7735 H   0  0
   -2.5549    4.2100    0.3757 H   0  0
    0.5011    9.6611    6.0498 H   0  0
   -2.2090    7.7776    3.3613 H   0  0
    6.2224   10.3332    7.5684 H   0  0
    4.1264    9.5942    6.3973 H   0  0
    6.5443    7.1874    3.8288 H   0  0
    9.4162    9.2077    6.5957 H   0  0
    8.6682    7.1681    4.0671 H   0  0
   -1.6429    9.9642    6.2439 H   0  0
   -1.4342    6.4933    1.7856 H   0  0
  1  2  1  0
  2  3  1  0
  3  4  1  0
  4  5  1  0
  5  6  1  0
  1  6  1  0
  1  7  1  0
  1  8  1  0
  2  9  1  0
  2 10  1  0
  3 11  1  0
  3 12  1  0
  4 13  1  0
  4 14  1  0
  6 15  1  0
  6 16  1  0
 15 17  1  0
 18 19  1  0
 19 20  1  0
 20 21  1  0
 21 22  1  0
 22 23  1  0
 18 23  1  0
 18 24  1  0
 18 25  1  0
 19 26  1  0
 21 27  1  0
 21 28  1  0
 22 29  1  0
 22 30  1  0
 23 31  1  0
 23 32  1  0
 17 19  1  0
 13 33  1  0
 34 35  1  0
 36 37  1  0
 34 38  1  0
 37 33  1  0
 33 38  2  0
 39 40  2  0
 40 41  1  0
 41 42  2  0
 39 35  1  0
 42 36  1  0
 36 35  2  0
 38 43  1  0
 44 45  1  0
 46 47  2  0
 47 48  1  0
 44 48  2  0
 45 43  2  0
 43 46  1  0
 48 49  1  0
 47 50  1  0
 40 51  1  0
 42 52  1  0
 37 53  2  0
  7 54  1  0
  9 55  1  0
 12 56  1  0
 15 57  1  0
 15 58  1  0
 25 59  1  0
 27 60  1  0
 27 61  1  0
 27 62  1  0
 30 63  1  0
 31 64  1  0
 39 65  1  0
 41 66  1  0
 44 67  1  0
 45 68  1  0
 46 69  1  0
 49 70  1  0
 50 71  1  0
 51 72  1  0
 52 73  1  0
M  END
> <Name>
DCE2007_C2

> <Clean Energy>
2.849

$$$$
DCE2007_C3
  SciTegic12132405553D

 73 77  0  0  0  0            999 V2000
    5.3896    4.0076    0.5110 C   0  0  1  0  0  0
    6.4764    4.6930    1.3235 C   0  0  1  0  0  0
    6.0697    4.6559    2.7933 C   0  0  2  0  0  0
    4.7234    5.3824    2.9314 C   0  0  1  0  0  0
    3.7246    4.7263    2.1371 O   0  0
    4.0703    4.7559    0.7451 C   0  0  2  0  0  0
    5.7285    4.0434   -0.8728 O   0  0
    5.2848    2.9647    0.8395 H   0  0
    7.7187    4.0196    1.1430 O   0  0
    6.5723    5.7382    0.9972 H   0  0
    5.9653    3.6153    3.1304 H   0  0
    7.0613    5.3146    3.5790 O   0  0
    4.3244    5.4081    4.3278 O   0  0
    4.8389    6.4172    2.5808 H   0  0
    2.9634    4.0775   -0.0437 C   0  0
    4.1736    5.7999    0.4171 H   0  0
    1.7282    4.7906    0.1935 O   0  0
    0.2294    2.7815    0.0215 C   0  0  2  0  0  0
    0.5885    4.2274   -0.5069 C   0  0  2  0  0  0
    0.9206    4.1604   -1.9499 O   0  0
   -0.1591    3.6604   -2.8040 C   0  0  1  0  0  0
   -0.5757    2.2414   -2.2534 C   0  0  2  0  0  0
   -0.9957    2.2300   -0.7407 C   0  0  2  0  0  0
    1.0853    2.1213   -0.1630 H   0  0
   -0.0572    2.8102    1.4215 O   0  0
   -0.2733    4.8846   -0.3392 H   0  0
   -1.3107    4.7112   -2.9188 C   0  0
    0.2166    3.5279   -3.8279 H   0  0
   -1.3789    1.8267   -2.8773 H   0  0
    0.5797    1.4072   -2.3551 O   0  0
   -2.1930    2.9869   -0.4129 O   0  0
   -1.1946    1.1951   -0.4302 H   0  0
    3.1206    6.1125    4.4556 C   0  0
    1.8436    8.0703    4.7415 O   0  0
    0.6526    7.4109    4.6116 C   0  0
    0.6224    6.1007    4.3978 C   0  0
    1.8674    5.3816    4.2986 C   0  0
    3.0692    7.4408    4.6866 C   0  0
   -0.5981    8.1612    4.7140 C   0  0
   -1.7656    7.5317    4.5970 C   0  0
   -1.7989    6.0876    4.3649 C   0  0
   -0.6610    5.4027    4.2680 C   0  0
    4.2744    8.3265    4.8834 C   0  0
    5.2095   10.5640    5.0288 C   0  0
    4.0822    9.6443    4.8599 C   0  0
    5.6460    7.8123    5.1100 C   0  0
    6.6630    8.6537    5.2668 C   0  0
    6.4374   10.0891    5.2191 C   0  0
    7.5058   10.9610    5.3753 O   0  0
   -2.9526    8.2479    4.6959 O   0  0
   -0.6965    4.0310    4.0491 O   0  0
    1.8754    4.1637    4.0892 O   0  0
    5.8229    4.9861   -1.1610 H   0  0
    7.6263    3.0814    1.4392 H   0  0
    7.9259    4.8476    3.4770 H   0  0
    3.2066    4.0968   -1.1149 H   0  0
    2.8839    3.0401    0.2973 H   0  0
    0.7303    3.1551    1.9136 H   0  0
   -2.0931    4.3164   -3.5816 H   0  0
   -0.9047    5.6377   -3.3473 H   0  0
   -1.7408    4.9371   -1.9570 H   0  0
    0.8765    1.3723   -3.2975 H   0  0
   -2.0977    3.9227   -0.5414 H   0  0
   -0.5750    9.2078    4.8824 H   0  0
   -2.7292    5.5866    4.2742 H   0  0
    5.0477   11.6108    4.9945 H   0  0
    3.1078   10.0316    4.7025 H   0  0
    5.8270    6.7786    5.1577 H   0  0
    8.0454    8.1195    5.4985 O   0  0
    8.3371   10.4393    5.5061 H   0  0
   -2.7488    9.2038    4.8517 H   0  0
   -1.6372    3.7309    3.9913 H   0  0
    8.0941    7.1695    5.9431 H   0  0
  1  2  1  0
  2  3  1  0
  3  4  1  0
  4  5  1  0
  5  6  1  0
  1  6  1  0
  1  7  1  0
  1  8  1  0
  2  9  1  0
  2 10  1  0
  3 11  1  0
  3 12  1  0
  4 13  1  0
  4 14  1  0
  6 15  1  0
  6 16  1  0
 15 17  1  0
 18 19  1  0
 19 20  1  0
 20 21  1  0
 21 22  1  0
 22 23  1  0
 18 23  1  0
 18 24  1  0
 18 25  1  0
 19 26  1  0
 21 27  1  0
 21 28  1  0
 22 29  1  0
 22 30  1  0
 23 31  1  0
 23 32  1  0
 17 19  1  0
 13 33  1  0
 34 35  1  0
 36 37  1  0
 34 38  1  0
 37 33  1  0
 33 38  2  0
 39 40  2  0
 40 41  1  0
 41 42  2  0
 39 35  1  0
 42 36  1  0
 36 35  2  0
 38 43  1  0
 44 45  1  0
 46 47  2  0
 47 48  1  0
 44 48  2  0
 45 43  2  0
 43 46  1  0
 48 49  1  0
 40 50  1  0
 42 51  1  0
 37 52  2  0
  7 53  1  0
  9 54  1  0
 12 55  1  0
 15 56  1  0
 15 57  1  0
 25 58  1  0
 27 59  1  0
 27 60  1  0
 27 61  1  0
 30 62  1  0
 31 63  1  0
 39 64  1  0
 41 65  1  0
 44 66  1  0
 45 67  1  0
 46 68  1  0
 47 69  1  0
 49 70  1  0
 50 71  1  0
 51 72  1  0
 69 73  1  0
M  END
> <Name>
DCE2007_C3

> <Clean Energy>
35.1158

$$$$
DCE2007_C4
  SciTegic12132405553D

 25 25  0  0  0  0            999 V2000
    3.3616   -1.6757    0.1320 C   0  0
    2.0000   -1.2975    0.7409 C   0  0  1  0  0  0
    0.8730   -1.8443   -0.1558 C   0  0  2  0  0  0
    0.9886   -1.2323   -1.5632 C   0  0  2  0  0  0
    2.3593   -1.6038   -2.1658 C   0  0
    3.4910   -1.0596   -1.2712 C   0  0  2  0  0  0
    3.4339   -2.7697    0.0588 H   0  0
    4.1700   -1.2959    0.7713 H   0  0
    1.8892   -1.8722    2.0400 O   0  0
    1.9177   -0.2041    0.8132 H   0  0
    0.9632   -2.9373   -0.2244 H   0  0
   -0.3930   -1.5047    0.4081 O   0  0
    0.1877   -1.6285   -2.2019 H   0  0
    0.8655    0.1889   -1.4787 O   0  0
    2.4475   -1.1694   -3.1706 H   0  0
    2.4432   -2.6977   -2.2295 H   0  0
    4.8219   -1.4432   -1.8379 C   0  0
    3.4226    0.3595   -1.1319 O   0  0
    4.9001   -2.3751   -2.6457 O   0  0
    5.9708   -0.7555   -1.4565 O   0  0
    1.9624   -2.8558    1.9680 H   0  0
   -0.4671   -1.8996    1.3112 H   0  0
   -0.0131    0.4217   -1.0908 H   0  0
    3.5140    0.7797   -2.0213 H   0  0
    5.7370   -0.0454   -0.8087 H   0  0
  1  2  1  0
  2  3  1  0
  3  4  1  0
  4  5  1  0
  5  6  1  0
  1  6  1  0
  1  7  1  0
  1  8  1  0
  2  9  1  0
  2 10  1  0
  3 11  1  0
  3 12  1  0
  4 13  1  0
  4 14  1  0
  5 15  1  0
  5 16  1  0
  6 17  1  0
  6 18  1  0
 17 20  1  0
 17 19  2  0
  9 21  1  0
 12 22  1  0
 14 23  1  0
 18 24  1  0
 20 25  1  0
M  END
> <Name>
DCE2007_C4

> <Clean Energy>
5.24535

$$$$
DCE2007_C5
  SciTegic12132405553D

 20 20  0  0  0  0            999 V2000
   -1.8738    2.9264    0.0834 C   0  0
   -3.0945    2.1243    0.1021 C   0  0
   -3.0193    0.7958    0.1131 C   0  0
   -1.7141    0.1348    0.1064 C   0  0
   -0.5952    0.8562    0.0894 C   0  0
   -0.6833    2.3310    0.0772 C   0  0
   -4.3341    2.7501    0.1085 O   0  0
    0.7024    0.1438    0.0832 C   0  0
    1.8714    0.7943    0.0664 C   0  0
    3.1745    0.0748    0.0602 C   0  0
    4.2152    0.7413    0.0444 O   0  0
    3.2759   -1.3330    0.0716 O   0  0
   -1.9365    3.9849    0.0747 H   0  0
   -3.9067    0.2155    0.1267 H   0  0
   -1.6580   -0.9240    0.1152 H   0  0
    0.1949    2.9213    0.0637 H   0  0
   -4.2062    3.7312    0.0986 H   0  0
    0.6974   -0.9121    0.0926 H   0  0
    1.8830    1.8504    0.0569 H   0  0
    2.3980   -1.7640    0.0838 H   0  0
  1  2  1  0
  2  3  2  0
  3  4  1  0
  4  5  2  0
  5  6  1  0
  1  6  2  0
  2  7  1  0
  5  8  1  0
  9 10  1  0
 10 11  2  0
 10 12  1  0
  8  9  2  0
  1 13  1  0
  3 14  1  0
  4 15  1  0
  6 16  1  0
  7 17  1  0
  8 18  1  0
  9 19  1  0
 12 20  1  0
M  END
> <Name>
DCE2007_C5

> <Clean Energy>
-1.14381

$$$$
DCE2007_C6
  SciTegic12132405553D

 20 20  0  0  0  0            999 V2000
   -3.8561    1.7650    0.5063 C   0  0
   -5.1123    1.0953    0.2180 C   0  0
   -5.1290   -0.2144    0.0016 C   0  0
   -3.8860   -0.9820    0.0451 C   0  0
   -2.7159   -0.3895    0.2898 C   0  0
   -2.7181    1.0750    0.5449 C   0  0
   -6.2939    1.8236    0.1757 O   0  0
   -1.5103   -1.3254    0.3045 C   0  0
   -0.1779   -1.0762    0.3396 C   0  0
    0.5541    0.2263    0.3221 C   0  0
    1.9391    0.1985    0.4344 O   0  0
    0.0094    1.3131    0.1641 O   0  0
   -3.8467    2.8084    0.6954 H   0  0
   -6.0463   -0.7045   -0.2049 H   0  0
   -3.9130   -2.0276   -0.1291 H   0  0
   -1.8493    1.5760    0.7728 H   0  0
   -6.0990    2.7758    0.3607 H   0  0
   -1.7599   -2.3558    0.2806 H   0  0
    0.4396   -1.9382    0.3650 H   0  0
    2.2426   -0.7380    0.5353 H   0  0
  1  2  1  0
  2  3  2  0
  3  4  1  0
  4  5  2  0
  5  6  1  0
  1  6  2  0
  2  7  1  0
  5  8  1  0
  8  9  2  0
  9 10  1  0
 10 12  2  0
 10 11  1  0
  1 13  1  0
  3 14  1  0
  4 15  1  0
  6 16  1  0
  7 17  1  0
  8 18  1  0
  9 19  1  0
 11 20  1  0
M  END
> <Name>
DCE2007_C6

> <Clean Energy>
11.0027

$$$$
DCE2007_C7
  SciTegic12132405553D

 43 44  0  0  0  0            999 V2000
    0.2068    4.9715   -6.1723 C   0  0
   -1.1250    4.2548   -6.5503 C   0  0  1  0  0  0
   -1.0196    3.7698   -8.0100 C   0  0  2  0  0  0
   -0.8079    4.9755   -8.9456 C   0  0  2  0  0  0
    0.4971    5.6946   -8.5559 C   0  0
    0.4223    6.1762   -7.0936 C   0  0  2  0  0  0
    0.1610    5.3181   -5.1356 H   0  0
    1.0435    4.2691   -6.2857 H   0  0
   -1.3396    3.1092   -5.6985 O   0  0
   -1.9738    4.9414   -6.4681 H   0  0
   -0.1715    3.0775   -8.1041 H   0  0
   -2.2259    3.0990   -8.3730 O   0  0
   -0.7351    4.6259   -9.9842 H   0  0
   -1.9154    5.8710   -8.8265 O   0  0
    0.6550    6.5572   -9.2177 H   0  0
    1.3370    4.9938   -8.6586 H   0  0
    1.7116    6.8640   -6.7446 C   0  0
   -0.6624    7.1033   -6.9784 O   0  0
    2.4834    6.3361   -5.9366 O   0  0
    2.0501    8.0891   -7.3239 O   0  0
   -1.6691    3.2073   -4.2658 C   0  0
   -1.7088    2.1233   -3.6739 O   0  0
   -2.0023    4.4307   -3.3825 C   0  0
   -2.1753    5.7007   -3.7898 C   0  0
   -2.5024    6.8057   -2.8521 C   0  0
   -2.9560    9.1766   -2.6224 C   0  0
   -3.1187    8.9750   -1.1869 C   0  0
   -2.9734    7.7564   -0.6664 C   0  0
   -2.6513    6.6225   -1.5349 C   0  0
   -2.6635    8.1469   -3.4125 C   0  0
   -3.4244   10.0593   -0.3725 O   0  0
   -3.1258    7.5478    0.7046 O   0  0
   -2.3648    2.3246   -7.7747 H   0  0
   -2.7480    5.4016   -9.0771 H   0  0
   -0.5184    7.8633   -7.5891 H   0  0
    1.3416    8.3820   -7.9450 H   0  0
   -2.1224    4.2299   -2.3546 H   0  0
   -2.0850    5.9423   -4.7949 H   0  0
   -3.0710   10.1459   -3.0368 H   0  0
   -2.5391    5.6630   -1.1081 H   0  0
   -2.5456    8.2982   -4.4560 H   0  0
   -3.4934   10.8761   -0.9262 H   0  0
   -3.3397    8.3988    1.1558 H   0  0
  1  2  1  0
  2  3  1  0
  3  4  1  0
  4  5  1  0
  5  6  1  0
  1  6  1  0
  1  7  1  0
  1  8  1  0
  2  9  1  0
  2 10  1  0
  3 11  1  0
  3 12  1  0
  4 13  1  0
  4 14  1  0
  5 15  1  0
  5 16  1  0
  6 17  1  0
  6 18  1  0
 17 20  1  0
 17 19  2  0
  9 21  1  0
 21 23  1  0
 24 25  1  0
 21 22  2  0
 23 24  2  0
 26 27  1  0
 27 28  2  0
 28 29  1  0
 26 30  2  0
 29 25  2  0
 25 30  1  0
 27 31  1  0
 28 32  1  0
 12 33  1  0
 14 34  1  0
 18 35  1  0
 20 36  1  0
 23 37  1  0
 24 38  1  0
 26 39  1  0
 29 40  1  0
 30 41  1  0
 31 42  1  0
 32 43  1  0
M  END
> <Name>
DCE2007_C7

> <Clean Energy>
16.3363

$$$$
DCE2007_C8
  SciTegic12132405553D

 81 85  0  0  0  0            999 V2000
    2.6709   -6.2057   -4.0709 C   0  0
    2.9438   -7.6822   -4.5611 C   0  0
    4.0513   -7.6329   -5.6679 C   0  0  1  0  0  0
    5.4256   -7.0619   -5.1405 C   0  0
    5.0896   -5.5710   -4.5736 C   0  0  1  0  0  0
    3.9258   -5.5412   -3.4333 C   0  0  1  0  0  0
    3.6299   -3.9500   -3.1722 C   0  0  2  0  0  0
    6.3877   -4.8004   -4.0667 C   0  0
    6.0155   -3.2925   -3.8243 C   0  0
    4.9313   -3.0663   -2.7275 C   0  0  1  0  0  0
    2.0800   -2.2428   -1.9830 C   0  0
    2.4753   -3.7378   -2.1106 C   0  0
    4.4675   -1.4722   -2.6504 C   0  0  1  0  0  0
    3.2902   -1.3440   -1.5579 C   0  0  1  0  0  0
    2.8824    0.1879   -1.4179 C   0  0  2  0  0  0
    5.7099   -0.5186   -2.2113 C   0  0
    5.2441    0.9744   -2.0471 C   0  0
    4.1337    1.0604   -0.9648 C   0  0  1  0  0  0
    2.0581    2.1713   -0.2654 C   0  0
    1.9030    0.5847   -0.2657 C   0  0  1  0  0  0
    3.4480    2.3801   -0.9832 C   0  0
    4.1964   -6.3544   -2.0655 C   0  0
    4.2367   -8.9450   -6.2336 O   0  0
    6.1525   -8.0402   -4.1433 C   0  0
    6.3943   -6.9643   -6.3331 C   0  0
    5.5845   -3.4555   -1.3108 C   0  0
    3.9553   -0.9669   -4.1022 C   0  0
    4.7946    0.7138    0.4636 C   0  0
    0.4613    0.1567   -0.2148 C   0  0
   -0.0005   -0.4618    0.8670 C   0  0
   -0.4615    0.4266   -1.3709 C   0  0
    2.3890   -5.6275   -4.9612 H   0  0
    1.8449   -6.1903   -3.3498 H   0  0
    3.2514   -8.3341   -3.7356 H   0  0
    2.0198   -8.0752   -5.0049 H   0  0
    3.6857   -6.9577   -6.4537 H   0  0
    4.6924   -5.0180   -5.4356 H   0  0
    3.3087   -3.5659   -4.1417 H   0  0
    7.1452   -4.8078   -4.8555 H   0  0
    6.7980   -5.2770   -3.1673 H   0  0
    6.9128   -2.7201   -3.5605 H   0  0
    5.6319   -2.9401   -4.7847 H   0  0
    1.6919   -1.8982   -2.9462 H   0  0
    1.2896   -2.1645   -1.2354 H   0  0
    2.8043   -4.1062   -1.1323 H   0  0
    1.5819   -4.2896   -2.4206 H   0  0
    3.6646   -1.6811   -0.5897 H   0  0
    2.5066    0.5664   -2.3737 H   0  0
    6.5009   -0.5813   -2.9686 H   0  0
    6.1112   -0.8466   -1.2576 H   0  0
    6.0798    1.6308   -1.7727 H   0  0
    4.8298    1.3076   -3.0009 H   0  0
    1.3738    2.6668   -0.9661 H   0  0
    1.9124    2.5471    0.7561 H   0  0
    2.3712    0.2079    0.6231 H   0  0
    3.1675    2.4358   -2.0442 H   0  0
    4.0113    3.2872   -0.7281 H   0  0
    3.3304   -6.2474   -1.4035 H   0  0
    5.0639   -6.0058   -1.5647 H   0  0
    4.3292   -7.3992   -2.2556 H   0  0
    4.5123   -9.5914   -5.5435 H   0  0
    7.1116   -7.6032   -3.8362 H   0  0
    6.3393   -8.9897   -4.6617 H   0  0
    5.5631   -8.2433   -3.2783 H   0  0
    7.3553   -6.5488   -6.0067 H   0  0
    5.9551   -6.3157   -7.1034 H   0  0
    6.5573   -7.9685   -6.7473 H   0  0
    4.8568   -3.3347   -0.5027 H   0  0
    6.4475   -2.8185   -1.1107 H   0  0
    5.9342   -4.4643   -1.3144 H   0  0
    4.7723   -1.0478   -4.8267 H   0  0
    3.6333    0.0756   -4.0621 H   0  0
    3.1143   -1.5698   -4.4517 H   0  0
    4.0669    0.7814    1.2756 H   0  0
    5.5988    1.4351    0.6585 H   0  0
    5.2139   -0.2980    0.4575 H   0  0
   -1.0156   -0.7647    0.9108 H   0  0
    0.6474   -0.6522    1.6846 H   0  0
    0.0606    0.9609   -2.1781 H   0  0
   -1.3232    1.0037   -1.0087 H   0  0
   -0.8586   -0.5322   -1.7323 H   0  0
  1  2  1  0
  2  3  1  0
  3  4  1  0
  4  5  1  0
  5  6  1  0
  1  6  1  0
  8  9  1  0
  9 10  1  0
  7 10  1  0
  5  8  1  0
  7  6  1  0
 11 12  1  0
 13 14  1  0
 11 14  1  0
 12  7  1  0
 10 13  1  0
 16 17  1  0
 17 18  1  0
 15 18  1  0
 13 16  1  0
 15 14  1  0
 19 20  1  0
 19 21  1  0
 20 15  1  0
 18 21  1  0
  4 24  1  0
  4 25  1  0
 29 30  2  0
 29 31  1  0
 18 28  1  0
 13 27  1  0
 10 26  1  0
  6 22  1  0
  3 23  1  0
 20 29  1  0
  1 32  1  0
  1 33  1  0
  2 34  1  0
  2 35  1  0
  3 36  1  0
  5 37  1  0
  7 38  1  0
  8 39  1  0
  8 40  1  0
  9 41  1  0
  9 42  1  0
 11 43  1  0
 11 44  1  0
 12 45  1  0
 12 46  1  0
 14 47  1  0
 15 48  1  0
 16 49  1  0
 16 50  1  0
 17 51  1  0
 17 52  1  0
 19 53  1  0
 19 54  1  0
 20 55  1  0
 21 56  1  0
 21 57  1  0
 22 58  1  0
 22 59  1  0
 22 60  1  0
 23 61  1  0
 24 62  1  0
 24 63  1  0
 24 64  1  0
 25 65  1  0
 25 66  1  0
 25 67  1  0
 26 68  1  0
 26 69  1  0
 26 70  1  0
 27 71  1  0
 27 72  1  0
 27 73  1  0
 28 74  1  0
 28 75  1  0
 28 76  1  0
 30 77  1  0
 30 78  1  0
 31 79  1  0
 31 80  1  0
 31 81  1  0
M  END
> <Name>
DCE2007_C8

> <Clean Energy>
116.739

$$$$
DCE2007_C9
  SciTegic12132405553D

 81 85  0  0  0  0            999 V2000
   -2.9926   -0.3646   -5.5970 C   0  0
   -4.3682   -1.0610   -5.9420 C   0  0
   -4.0757   -2.2797   -6.8870 C   0  0  1  0  0  0
   -3.1642   -3.3789   -6.2081 C   0  0
   -1.7911   -2.6072   -5.7954 C   0  0  1  0  0  0
   -2.0160   -1.3094   -4.8454 C   0  0  1  0  0  0
   -0.5420   -0.5985   -4.7464 C   0  0  2  0  0  0
   -0.7006   -3.5776   -5.1404 C   0  0
    0.6609   -2.8020   -5.0831 C   0  0
    0.6406   -1.5048   -4.2082 C   0  0  1  0  0  0
    0.7518    1.3891   -3.6311 C   0  0
   -0.5866    0.6907   -3.8400 C   0  0
    2.0438   -0.6323   -4.4226 C   0  0  1  0  0  0
    1.9548    0.7916   -3.8120 C   0  0
    3.3161    1.6104   -3.6757 C   0  0  2  0  0  0
    3.3002   -1.4398   -3.8765 C   0  0
    4.6196   -0.6132   -3.9270 C   0  0
    4.4891    0.6839   -3.0479 C   0  0  2  0  0  0
    4.5968    3.8070   -3.0857 C   0  0  1  0  0  0
    3.1883    3.1054   -2.9891 C   0  0  2  0  0  0
   -2.6819   -1.5766   -3.3994 C   0  0
   -5.3152   -2.8618   -7.3350 O   0  0
   -3.9060   -4.1617   -5.0609 C   0  0
   -2.8547   -4.4652   -7.2529 C   0  0
    0.5282   -1.9350   -2.6652 C   0  0
    2.3204   -0.3367   -5.9758 C   0  0
    4.2818    0.2260   -1.5349 C   0  0
    3.6459    1.7728   -4.7011 H   0  0
   -1.3815   -2.2322   -6.7431 H   0  0
   -0.2847   -0.3498   -5.7711 H   0  0
    5.7197    2.8989   -2.3995 C   0  0
    5.8187    1.4889   -3.1411 C   0  0
    4.9846    4.0860   -4.5835 C   0  0
    2.7078    3.1692   -1.4853 C   0  0
   -2.5340   -0.0873   -6.5556 H   0  0
   -3.1597    0.5389   -4.9978 H   0  0
   -4.8958   -1.3902   -5.0393 H   0  0
   -4.9941   -0.3382   -6.4815 H   0  0
   -3.5359   -1.8840   -7.7583 H   0  0
   -0.5383   -4.4388   -5.7956 H   0  0
   -1.0276   -3.9291   -4.1532 H   0  0
    1.4663   -3.4587   -4.7320 H   0  0
    0.8482   -2.5270   -6.1218 H   0  0
    0.7118    2.3829   -3.3071 H   0  0
   -0.9044    0.4006   -2.8352 H   0  0
   -1.3218    1.4146   -4.2098 H   0  0
    3.4065   -2.3695   -4.4483 H   0  0
    3.1423   -1.6950   -2.8402 H   0  0
    5.4455   -1.2230   -3.5383 H   0  0
    4.8414   -0.3265   -4.9596 H   0  0
    4.5334    4.7862   -2.5925 H   0  0
    2.4578    3.7041   -3.5495 H   0  0
   -2.7770   -0.6279   -2.8614 H   0  0
   -2.0971   -2.2537   -2.8195 H   0  0
   -3.6626   -1.9907   -3.4941 H   0  0
   -5.8532   -3.1776   -6.5732 H   0  0
   -3.2358   -4.9272   -4.6487 H   0  0
   -4.7905   -4.6508   -5.4898 H   0  0
   -4.2302   -3.5156   -4.2772 H   0  0
   -2.2026   -5.2323   -6.8184 H   0  0
   -2.3560   -4.0039   -8.1167 H   0  0
   -3.7950   -4.9314   -7.5772 H   0  0
    0.5145   -1.0488   -2.0205 H   0  0
    1.3842   -2.5561   -2.3915 H   0  0
   -0.3521   -2.5145   -2.4892 H   0  0
    2.4271   -1.2794   -6.5222 H   0  0
    3.2375    0.2427   -6.1033 H   0  0
    1.4923    0.2364   -6.4029 H   0  0
    4.2464    1.0656   -0.8720 H   0  0
    5.1317   -0.4047   -1.2437 H   0  0
    3.3541   -0.3439   -1.4237 H   0  0
    6.6845    3.4168   -2.4809 H   0  0
    5.4869    2.7434   -1.3406 H   0  0
    6.0361    1.6784   -4.1940 H   0  0
    6.6282    0.8809   -2.7168 H   0  0
    5.9556    4.5985   -4.6125 H   0  0
    4.2186    4.7311   -5.0351 H   0  0
    5.0530    3.1610   -5.1628 H   0  0
    1.7185    2.7054   -1.3952 H   0  0
    2.6414    4.2235   -1.1853 H   0  0
    3.3942    2.6737   -0.8253 H   0  0
  1  2  1  0
  2  3  1  0
  3  4  1  0
  4  5  1  0
  5  6  1  0
  1  6  1  0
  8  9  1  0
  9 10  1  0
  7 10  1  0
  5  8  1  0
  7  6  1  0
 11 12  1  0
 13 14  1  0
 12  7  1  0
 10 13  1  0
 16 17  1  0
 17 18  1  0
 15 18  1  0
 13 16  1  0
 15 14  1  0
 19 20  1  0
 20 15  1  0
  4 23  1  0
  4 24  1  0
 18 27  1  0
 13 26  1  0
 10 25  1  0
  6 21  1  0
  3 22  1  0
  5 29  1  0
  7 30  1  0
 15 28  1  0
 11 14  2  0
 19 31  1  0
 31 32  1  0
 32 18  1  0
 19 33  1  0
 20 34  1  0
  1 35  1  0
  1 36  1  0
  2 37  1  0
  2 38  1  0
  3 39  1  0
  8 40  1  0
  8 41  1  0
  9 42  1  0
  9 43  1  0
 11 44  1  0
 12 45  1  0
 12 46  1  0
 16 47  1  0
 16 48  1  0
 17 49  1  0
 17 50  1  0
 19 51  1  0
 20 52  1  0
 21 53  1  0
 21 54  1  0
 21 55  1  0
 22 56  1  0
 23 57  1  0
 23 58  1  0
 23 59  1  0
 24 60  1  0
 24 61  1  0
 24 62  1  0
 25 63  1  0
 25 64  1  0
 25 65  1  0
 26 66  1  0
 26 67  1  0
 26 68  1  0
 27 69  1  0
 27 70  1  0
 27 71  1  0
 31 72  1  0
 31 73  1  0
 32 74  1  0
 32 75  1  0
 33 76  1  0
 33 77  1  0
 33 78  1  0
 34 79  1  0
 34 80  1  0
 34 81  1  0
M  END
> <Name>
DCE2007_C9

> <Clean Energy>
72.9621

$$$$
DCE2007_C10
  SciTegic12132405553D

138142  0  0  0  0            999 V2000
    1.7885    2.6494    9.8711 C   0  0
    0.4786    1.9224   10.3799 C   0  0
    0.6044    0.3697   10.1266 C   0  0  1  0  0  0
    1.8039   -0.2788   10.8535 C   0  0
    3.1395    0.5342   10.3558 C   0  0  1  0  0  0
    3.0639    2.1458   10.6331 C   0  0  1  0  0  0
    4.4213    2.7795    9.9596 C   0  0  2  0  0  0
    4.4750   -0.0801   10.9542 C   0  0
    5.7208    0.5909   10.2464 C   0  0
    5.8276    2.1271   10.4909 C   0  0  1  0  0  0
    5.6765    5.0012    9.4305 C   0  0
    4.4757    4.3525   10.1593 C   0  0
    7.0715    2.8161    9.6266 C   0  0  1  0  0  0
    7.0487    4.4057    9.9111 C   0  0  1  0  0  0
    8.2817    5.0874    9.1882 C   0  0  2  0  0  0
    8.5093    2.2082   10.0831 C   0  0
    9.6937    2.9446    9.3510 C   0  0
    9.6556    4.4591    9.7015 C   0  0  1  0  0  0
   10.0478    6.7550    8.9239 C   0  0
    8.5845    6.5847    9.5346 C   0  0  1  0  0  0
   10.5501    5.2594    8.8250 C   0  0
    7.6777    7.7323    9.1889 C   0  0
    7.2754    7.9969    7.7690 C   0  0
    7.2325    8.5243   10.1599 C   0  0
   10.0114    4.6166   11.2691 C   0  0
    6.9044    2.5134    8.0487 C   0  0
    6.1596    2.3318   12.0544 C   0  0
    2.8841    2.6427   12.1677 C   0  0
    1.5631   -0.3670   12.4007 C   0  0
    1.8774   -1.7550   10.4159 C   0  0
   -0.5913   -0.2691   10.6366 O   0  0
   -1.7833   -0.3132    9.8718 C   0  0
   -2.8063   -0.6888   10.4577 O   0  0
   -1.8310   -0.2478    8.3498 C   0  0
   -2.7308   -1.4544    7.9187 C   0  0  1  0  0  0
   -2.8729   -1.4910    6.4996 O   0  0
   -2.1049   -2.7965    8.4273 C   0  0
   -3.0247   -3.9791    8.1339 C   0  0
   -2.3758   -5.2063    8.7833 C   0  0
   -3.2791   -6.4335    8.6638 C   0  0
   -2.5961   -7.5837    9.4133 C   0  0
   -3.4883   -8.8253    9.4084 C   0  0
   -2.7835   -9.9273   10.2072 C   0  0
   -3.6716  -11.1709   10.2645 C   0  0
   -2.9564  -12.2526   11.0795 C   0  0
   -3.8466  -13.4935   11.1608 C   0  0
   -3.1293  -14.5735   11.9738 C   0  0
   -4.0246  -15.8104   12.0580 C   0  0
   -3.3090  -16.8962   12.8625 C   0  0
   -4.2093  -18.1299   12.9427 C   0  0
   -3.4951  -19.2227   13.7414 C   0  0
   -4.4012  -20.4586   13.8192 C   0  0
    1.9007    2.4094    8.8048 H   0  0
    1.6933    3.7354    9.9930 H   0  0
    0.3276    2.1135   11.4458 H   0  0
   -0.3876    2.3048    9.8235 H   0  0
    0.7587    0.2050    9.0549 H   0  0
    3.1862    0.4079    9.2650 H   0  0
    4.3553    2.5395    8.8962 H   0  0
    4.5157   -1.1478   10.7187 H   0  0
    4.5071    0.0500   12.0421 H   0  0
    6.6463    0.1130   10.5888 H   0  0
    5.5918    0.4045    9.1749 H   0  0
    5.5677    4.8409    8.3541 H   0  0
    5.6523    6.0723    9.6316 H   0  0
    4.5607    4.5802   11.2272 H   0  0
    3.5591    4.8058    9.7664 H   0  0
    7.1673    4.5747   10.9816 H   0  0
    8.2061    4.9498    8.1042 H   0  0
    8.5359    1.1350    9.8573 H   0  0
    8.6505    2.3434   11.1484 H   0  0
   10.6672    2.5246    9.6345 H   0  0
    9.5565    2.8284    8.2736 H   0  0
   10.0452    7.0599    7.8700 H   0  0
   10.6053    7.4734    9.5406 H   0  0
    8.6728    6.5850   10.6027 H   0  0
   10.1928    4.9406    7.8366 H   0  0
   11.6350    5.0972    8.8701 H   0  0
    7.7346    7.2692    7.0854 H   0  0
    7.5654    9.0237    7.5061 H   0  0
    6.1793    7.9567    7.7035 H   0  0
    6.5937    9.3380    9.9294 H   0  0
    7.5168    8.3395   11.1658 H   0  0
   10.0262    5.6637   11.5802 H   0  0
   11.0076    4.1894   11.4440 H   0  0
    9.2797    4.0839   11.8856 H   0  0
    6.9357    1.4315    7.8806 H   0  0
    7.7106    2.9775    7.4757 H   0  0
    5.9538    2.9002    7.6744 H   0  0
    6.2239    3.3944   12.3023 H   0  0
    7.1068    1.8505   12.3011 H   0  0
    5.4098    1.8791   12.6680 H   0  0
    2.8373    3.7349   12.1958 H   0  0
    3.6765    2.3136   12.7856 H   0  0
    1.9752    2.2784   12.5898 H   0  0
    2.4179   -0.8678   12.8734 H   0  0
    0.6562   -0.9604   12.5772 H   0  0
    1.4240    0.5874   12.8442 H   0  0
    2.7226   -2.2535   10.9046 H   0  0
    2.0028   -1.8017    9.3244 H   0  0
    0.9445   -2.2626   10.6989 H   0  0
   -2.3249    0.6774    8.0225 H   0  0
   -0.8304   -0.3167    7.9076 H   0  0
   -3.7199   -1.3298    8.3805 H   0  0
   -3.2793   -0.6450    6.1889 H   0  0
   -1.9955   -2.7601    9.5144 H   0  0
   -1.1178   -2.9544    7.9709 H   0  0
   -3.9968   -3.7976    8.6132 H   0  0
   -3.1643   -4.1226    7.0536 H   0  0
   -1.3988   -5.4048    8.3218 H   0  0
   -2.2361   -4.9936    9.8525 H   0  0
   -4.2433   -6.2158    9.1442 H   0  0
   -3.4422   -6.6976    7.6100 H   0  0
   -1.6295   -7.8122    8.9439 H   0  0
   -2.4320   -7.2771   10.4560 H   0  0
   -4.4460   -8.5843    9.8909 H   0  0
   -3.6687   -9.1603    8.3781 H   0  0
   -1.8257  -10.1746    9.7295 H   0  0
   -2.6008   -9.5712   11.2310 H   0  0
   -4.6239  -10.9167   10.7508 H   0  0
   -3.8646  -11.5385    9.2478 H   0  0
   -2.0055  -12.5103   10.5936 H   0  0
   -2.7604  -11.8782   12.0942 H   0  0
   -4.7946  -13.2328   11.6521 H   0  0
   -4.0487  -13.8692   10.1487 H   0  0
   -2.1832  -14.8361   11.4808 H   0  0
   -2.9242  -14.1987   12.9865 H   0  0
   -4.9692  -15.5470   12.5541 H   0  0
   -4.2329  -16.1825   11.0457 H   0  0
   -2.3659  -17.1607   12.3644 H   0  0
   -3.0983  -16.5272   13.8760 H   0  0
   -5.1518  -17.8649   13.4420 H   0  0
   -4.4215  -18.4959   11.9286 H   0  0
   -2.5532  -19.4864   13.2397 H   0  0
   -3.2818  -18.8562   14.7554 H   0  0
   -3.8950  -21.2498   14.3906 H   0  0
   -4.6151  -20.8184   12.8025 H   0  0
   -5.3430  -20.1892   14.3184 H   0  0
  1  2  1  0
  2  3  1  0
  3  4  1  0
  4  5  1  0
  5  6  1  0
  1  6  1  0
  8  9  1  0
  9 10  1  0
  7 10  1  0
  5  8  1  0
  7  6  1  0
 11 12  1  0
 13 14  1  0
 11 14  1  0
 12  7  1  0
 10 13  1  0
 16 17  1  0
 17 18  1  0
 15 18  1  0
 13 16  1  0
 15 14  1  0
 19 20  1  0
 19 21  1  0
 20 15  1  0
 18 21  1  0
 22 23  1  0
 22 24  2  0
  4 29  1  0
  4 30  1  0
 20 22  1  0
 18 25  1  0
 13 26  1  0
 10 27  1  0
  6 28  1  0
  3 31  1  0
 31 32  1  0
 32 33  2  0
 32 34  1  0
 34 35  1  0
 35 36  1  0
 37 38  1  0
 38 39  1  0
 39 40  1  0
 40 41  1  0
 41 42  1  0
 42 43  1  0
 43 44  1  0
 44 45  1  0
 45 46  1  0
 46 47  1  0
 47 48  1  0
 48 49  1  0
 49 50  1  0
 50 51  1  0
 35 37  1  0
 51 52  1  0
  1 53  1  0
  1 54  1  0
  2 55  1  0
  2 56  1  0
  3 57  1  0
  5 58  1  0
  7 59  1  0
  8 60  1  0
  8 61  1  0
  9 62  1  0
  9 63  1  0
 11 64  1  0
 11 65  1  0
 12 66  1  0
 12 67  1  0
 14 68  1  0
 15 69  1  0
 16 70  1  0
 16 71  1  0
 17 72  1  0
 17 73  1  0
 19 74  1  0
 19 75  1  0
 20 76  1  0
 21 77  1  0
 21 78  1  0
 23 79  1  0
 23 80  1  0
 23 81  1  0
 24 82  1  0
 24 83  1  0
 25 84  1  0
 25 85  1  0
 25 86  1  0
 26 87  1  0
 26 88  1  0
 26 89  1  0
 27 90  1  0
 27 91  1  0
 27 92  1  0
 28 93  1  0
 28 94  1  0
 28 95  1  0
 29 96  1  0
 29 97  1  0
 29 98  1  0
 30 99  1  0
 30100  1  0
 30101  1  0
 34102  1  0
 34103  1  0
 35104  1  0
 36105  1  0
 37106  1  0
 37107  1  0
 38108  1  0
 38109  1  0
 39110  1  0
 39111  1  0
 40112  1  0
 40113  1  0
 41114  1  0
 41115  1  0
 42116  1  0
 42117  1  0
 43118  1  0
 43119  1  0
 44120  1  0
 44121  1  0
 45122  1  0
 45123  1  0
 46124  1  0
 46125  1  0
 47126  1  0
 47127  1  0
 48128  1  0
 48129  1  0
 49130  1  0
 49131  1  0
 50132  1  0
 50133  1  0
 51134  1  0
 51135  1  0
 52136  1  0
 52137  1  0
 52138  1  0
M  END
> <Name>
DCE2007_C10

> <Clean Energy>
128.979

$$$$
RB2018_1
  SciTegic12132405553D

 58 58  0  0  0  0            999 V2000
   -0.6264    2.4584    1.1904 C   0  0
   -1.1323    2.2263   -0.1389 C   0  0  1  0  0  0
   -1.3518    0.5696   -0.1640 C   0  0  1  0  0  0
   -0.1933   -0.2150    0.5066 N   0  0
    0.9332    0.4724    0.2167 C   0  0  1  0  0  0
    0.8405    1.8017    1.1353 C   0  0
   -2.3643    2.8857   -0.4825 O   0  0
   -2.5969    0.0503    0.6153 C   0  0
    2.2536   -0.2899    0.4925 C   0  0
    3.4910    0.5494    0.1133 C   0  0
    4.7463   -0.2743    0.3932 C   0  0
    5.9760    0.5490    0.0145 C   0  0
    7.2323   -0.2742    0.2939 C   0  0
    8.4621    0.5492   -0.0848 C   0  0
    9.7184   -0.2741    0.1946 C   0  0
   10.9483    0.5494   -0.1842 C   0  0
   12.2046   -0.2739    0.0952 C   0  0
   13.4347    0.5497   -0.2836 C   0  0
   14.6925   -0.2741   -0.0041 C   0  0
   15.9265    0.5515   -0.3835 C   0  0
   17.1038   -0.2125   -0.1236 O   0  0
   -0.5124    3.5159    1.4648 H   0  0
   -1.3025    1.9691    1.8910 H   0  0
   -0.3372    2.5699   -0.8221 H   0  0
   -1.4826    0.3075   -1.2222 H   0  0
   -0.2282   -1.1766    0.1451 H   0  0
    0.8888    0.6998   -0.8612 H   0  0
    1.5872    2.4973    0.7318 H   0  0
    1.0766    1.5852    2.1860 H   0  0
   -3.0771    2.6477    0.1537 H   0  0
   -2.6649   -1.0407    0.5034 H   0  0
   -3.5034    0.5187    0.2073 H   0  0
   -2.5029    0.3010    1.6803 H   0  0
    2.2611   -1.2084   -0.1100 H   0  0
    2.3036   -0.5527    1.5580 H   0  0
    3.4496    0.8032   -0.9548 H   0  0
    3.5280    1.4702    0.7080 H   0  0
    4.7885   -0.5297    1.4610 H   0  0
    4.7225   -1.1960   -0.2044 H   0  0
    5.9333    0.8042   -1.0534 H   0  0
    5.9997    1.4709    0.6119 H   0  0
    7.2750   -0.5295    1.3618 H   0  0
    7.2085   -1.1962   -0.3034 H   0  0
    8.4194    0.8045   -1.1527 H   0  0
    8.4859    1.4711    0.5125 H   0  0
    9.7611   -0.5293    1.2625 H   0  0
    9.6946   -1.1960   -0.4028 H   0  0
   10.9056    0.8046   -1.2521 H   0  0
   10.9721    1.4713    0.4132 H   0  0
   12.2472   -0.5292    1.1631 H   0  0
   12.1807   -1.1959   -0.5021 H   0  0
   13.3915    0.8050   -1.3516 H   0  0
   13.4580    1.4717    0.3138 H   0  0
   14.7340   -0.5294    1.0642 H   0  0
   14.6674   -1.1963   -0.6013 H   0  0
   15.8808    0.8073   -1.4517 H   0  0
   15.9463    1.4736    0.2145 H   0  0
   17.1383   -0.4446    0.8376 H   0  0
  1  2  1  0
  1  6  1  0
  2  3  1  0
  3  4  1  0
  4  5  1  0
  5  6  1  0
  2  7  1  0
  3  8  1  0
  9 10  1  0
 10 11  1  0
 11 12  1  0
 12 13  1  0
 13 14  1  0
 14 15  1  0
 15 16  1  0
 16 17  1  0
 17 18  1  0
 18 19  1  0
 19 20  1  0
 20 21  1  0
  5  9  1  0
  1 22  1  0
  1 23  1  0
  2 24  1  0
  3 25  1  0
  4 26  1  0
  5 27  1  0
  6 28  1  0
  6 29  1  0
  7 30  1  0
  8 31  1  0
  8 32  1  0
  8 33  1  0
  9 34  1  0
  9 35  1  0
 10 36  1  0
 10 37  1  0
 11 38  1  0
 11 39  1  0
 12 40  1  0
 12 41  1  0
 13 42  1  0
 13 43  1  0
 14 44  1  0
 14 45  1  0
 15 46  1  0
 15 47  1  0
 16 48  1  0
 16 49  1  0
 17 50  1  0
 17 51  1  0
 18 52  1  0
 18 53  1  0
 19 54  1  0
 19 55  1  0
 20 56  1  0
 20 57  1  0
 21 58  1  0
M  END
> <Name>
RB2018_1

> <Clean Energy>
40.3671989440918

$$$$
RB2018_2RR
  SciTegic12132405553D

120123  0  0  0  0            999 V2000
    1.5165    4.6813   -2.2321 C   0  0
    0.1617    5.5201   -2.0307 C   0  0  1  0  0  0
   -0.2593    5.6935   -0.4927 C   0  0  1  0  0  0
    0.8981    5.9374    0.1551 N   0  0
    1.6387    4.5583    0.1858 C   0  0  1  0  0  0
    1.4201    3.6684   -1.2167 C   0  0
    0.4366    6.7517   -2.6942 O   0  0
   -1.3418    6.7734   -0.3952 C   0  0
    3.1154    4.9778    0.5072 C   0  0
    4.0210    3.7431    0.6520 C   0  0
    5.4399    4.1997    0.9851 C   0  0
    6.3267    2.9652    1.1303 C   0  0
    7.7531    3.3966    1.4687 C   0  0
    8.6135    2.1436    1.6102 C   0  0
   10.0620    2.5509    1.9648 C   0  0
   10.9774    1.3055    2.1456 C   0  0
   11.0953    0.4778    0.8474 C   0  0
   12.0081   -0.7307    1.1167 C   0  0
   12.1910   -1.6071   -0.1523 C   0  0  2  0  0  0
   10.8856   -2.0942   -0.7426 C   0  0
   10.8157   -3.2378   -1.4238 C   0  0
   11.9801   -4.1764   -1.4968 C   0  0
   13.3332   -3.5724   -1.1138 N   0  0
   13.2114   -2.7461    0.1173 C   0  0  2  0  0  0
   14.0722   -4.8015   -0.6281 C   0  0
   14.4307   -4.4517    0.8248 C   0  0
   13.0867   -3.7915    1.2504 C   0  0
   12.6277   -0.9801   -0.9411 H   0  0
   14.1620   -2.2513    0.3473 H   0  0
    9.5192   -3.6375   -2.0493 C   0  0
    8.5148   -3.9707   -0.9369 C   0  0
    7.1802   -4.3478   -1.5755 C   0  0
    6.1700   -4.6602   -0.4738 C   0  0
    4.8314   -5.0194   -1.1162 C   0  0
    3.8129   -5.3155   -0.0171 C   0  0
    2.4724   -5.6611   -0.6630 C   0  0
    1.4481   -5.9452    0.4335 C   0  0
    0.1079   -6.2812   -0.2155 C   0  0
   -0.9233   -6.5613    0.8911 C   0  0
   -2.3217   -6.9268    0.2836 C   0  0  1  0  0  0
   -3.5084   -4.8121    0.2593 C   0  0
   -4.7322   -5.5934    0.9450 C   0  0  1  0  0  0
   -4.4543   -7.1596    1.1520 C   0  0  1  0  0  0
   -3.1716   -7.2306    1.5632 N   0  0
   -3.0176   -5.7633   -0.7008 C   0  0
   -4.9365   -4.8792    2.1620 O   0  0
   -5.5127   -7.7273    2.1033 C   0  0
    1.5814    4.3421   -3.2747 H   0  0
    2.3989    5.2646   -1.9858 H   0  0
   -0.7097    5.0476   -2.5036 H   0  0
   -0.6438    4.7607   -0.0470 H   0  0
    0.7975    6.2460    1.1302 H   0  0
    1.2775    3.9180    1.0013 H   0  0
    0.4061    3.2465   -1.3172 H   0  0
    2.1574    2.8576   -1.2602 H   0  0
    1.2084    7.1923   -2.2585 H   0  0
   -1.6216    6.9160    0.6580 H   0  0
   -2.2232    6.4590   -0.9715 H   0  0
   -0.9530    7.7169   -0.8034 H   0  0
    3.1264    5.5346    1.4539 H   0  0
    3.5020    5.6204   -0.2945 H   0  0
    3.6431    3.1044    1.4621 H   0  0
    4.0369    3.1747   -0.2862 H   0  0
    5.8229    4.8378    0.1768 H   0  0
    5.4344    4.7634    1.9281 H   0  0
    5.9370    2.3283    1.9364 H   0  0
    6.3280    2.4021    0.1867 H   0  0
    8.1506    4.0311    0.6645 H   0  0
    7.7553    3.9557    2.4145 H   0  0
    8.2063    1.5127    2.4123 H   0  0
    8.5921    1.5902    0.6632 H   0  0
   10.4687    3.1891    1.1681 H   0  0
   10.0424    3.1143    2.9080 H   0  0
   11.9830    1.6418    2.4337 H   0  0
   10.5643    0.6720    2.9428 H   0  0
   10.1074    0.1237    0.5385 H   0  0
   11.5284    1.0997    0.0523 H   0  0
   12.9927   -0.3648    1.4383 H   0  0
   11.5664   -1.3392    1.9173 H   0  0
   10.0231   -1.4855   -0.6875 H   0  0
   11.6972   -4.9133   -0.7409 H   0  0
   12.0163   -4.7308   -2.4433 H   0  0
   14.9086   -5.1318   -1.2585 H   0  0
   13.3447   -5.6105   -0.5374 H   0  0
   14.7287   -5.3316    1.4114 H   0  0
   15.2197   -3.6890    0.8599 H   0  0
   12.2217   -4.4562    1.1493 H   0  0
   13.1135   -3.3440    2.2533 H   0  0
    9.1008   -2.7864   -2.6035 H   0  0
    9.6558   -4.5146   -2.6968 H   0  0
    8.8909   -4.8091   -0.3342 H   0  0
    8.3696   -3.0918   -0.2934 H   0  0
    6.8133   -3.5049   -2.1773 H   0  0
    7.3124   -5.2285   -2.2191 H   0  0
    6.5296   -5.5033    0.1321 H   0  0
    6.0424   -3.7759    0.1659 H   0  0
    4.4785   -4.1733   -1.7220 H   0  0
    4.9536   -5.9038   -1.7566 H   0  0
    4.1601   -6.1616    0.5919 H   0  0
    3.6940   -4.4283    0.6202 H   0  0
    2.1301   -4.8130   -1.2720 H   0  0
    2.5874   -6.5484   -1.3008 H   0  0
    1.7862   -6.7933    1.0448 H   0  0
    1.3349   -5.0560    1.0691 H   0  0
   -0.2182   -5.4312   -0.8277 H   0  0
    0.2190   -7.1707   -0.8505 H   0  0
   -0.5687   -7.4061    1.4967 H   0  0
   -1.0184   -5.6738    1.5302 H   0  0
   -2.2014   -7.8158   -0.3492 H   0  0
   -3.8647   -3.8476   -0.1268 H   0  0
   -2.6907   -4.6436    0.9539 H   0  0
   -5.6543   -5.5534    0.3497 H   0  0
   -4.4817   -7.7270    0.2066 H   0  0
   -2.8732   -8.1506    1.9108 H   0  0
   -3.9087   -6.1209   -1.2432 H   0  0
   -2.2765   -5.3957   -1.4210 H   0  0
   -4.1152   -4.9298    2.7123 H   0  0
   -5.3184   -8.7960    2.2700 H   0  0
   -6.5093   -7.5987    1.6583 H   0  0
   -5.4661   -7.1911    3.0617 H   0  0
  1  2  1  0
  1  6  1  0
  2  3  1  0
  3  4  1  0
  4  5  1  0
  5  6  1  0
  2  7  1  0
  3  8  1  0
  9 10  1  0
 10 11  1  0
 11 12  1  0
 12 13  1  0
 13 14  1  0
 14 15  1  0
 15 16  1  0
 16 17  1  0
 17 18  1  0
 18 19  1  0
 20 21  2  0
 21 22  1  0
 22 23  1  0
 23 24  1  0
 19 20  1  0
 19 24  1  0
  5  9  1  0
 25 26  1  0
 26 27  1  0
 23 25  1  0
 24 27  1  0
 19 28  1  0
 21 30  1  0
 30 31  1  0
 31 32  1  0
 32 33  1  0
 33 34  1  0
 34 35  1  0
 35 36  1  0
 36 37  1  0
 37 38  1  0
 38 39  1  0
 41 42  1  0
 42 43  1  0
 43 44  1  0
 41 45  1  0
 40 44  1  0
 40 45  1  0
 42 46  1  0
 43 47  1  0
 40 39  1  0
 24 29  1  0
  1 48  1  0
  1 49  1  0
  2 50  1  0
  3 51  1  0
  4 52  1  0
  5 53  1  0
  6 54  1  0
  6 55  1  0
  7 56  1  0
  8 57  1  0
  8 58  1  0
  8 59  1  0
  9 60  1  0
  9 61  1  0
 10 62  1  0
 10 63  1  0
 11 64  1  0
 11 65  1  0
 12 66  1  0
 12 67  1  0
 13 68  1  0
 13 69  1  0
 14 70  1  0
 14 71  1  0
 15 72  1  0
 15 73  1  0
 16 74  1  0
 16 75  1  0
 17 76  1  0
 17 77  1  0
 18 78  1  0
 18 79  1  0
 20 80  1  0
 22 81  1  0
 22 82  1  0
 25 83  1  0
 25 84  1  0
 26 85  1  0
 26 86  1  0
 27 87  1  0
 27 88  1  0
 30 89  1  0
 30 90  1  0
 31 91  1  0
 31 92  1  0
 32 93  1  0
 32 94  1  0
 33 95  1  0
 33 96  1  0
 34 97  1  0
 34 98  1  0
 35 99  1  0
 35100  1  0
 36101  1  0
 36102  1  0
 37103  1  0
 37104  1  0
 38105  1  0
 38106  1  0
 39107  1  0
 39108  1  0
 40109  1  0
 41110  1  0
 41111  1  0
 42112  1  0
 43113  1  0
 44114  1  0
 45115  1  0
 45116  1  0
 46117  1  0
 47118  1  0
 47119  1  0
 47120  1  0
M  END
> <Name>
RB2018_2RR

> <Clean Energy>
179.348

$$$$
RB2018_2RS
  DSViewer          3D                             0

120123  0  0  0  0  0  0  0  0999 V2000
    1.5562    4.7157   -2.3222 C   0  0
    0.1804    5.5200   -2.1219 C   0  0  1  0  0  0
   -0.3280    5.5466   -0.6009 C   0  0  1  0  0  0
    0.7880    5.7400    0.1312 N   0  0
    1.5454    4.3707    0.0771 C   0  0  1  0  0  0
    1.4180    3.6124   -1.4113 C   0  0
    0.4742    6.8100   -2.6529 O   0  0
   -1.4295    6.6029   -0.4661 C   0  0
    2.9956    4.7723    0.5189 C   0  0
    3.9098    3.5383    0.6013 C   0  0
    5.3006    3.9769    1.0551 C   0  0
    6.1981    2.7445    1.1385 C   0  0
    7.5951    3.1613    1.5964 C   0  0
    8.4701    1.9128    1.6755 C   0  0
    9.8866    2.3095    2.1498 C   0  0
   10.8169    1.0688    2.2741 C   0  0
   11.0287    0.3618    0.9181 C   0  0
   11.9519   -0.8475    1.1370 C   0  0
   12.2205   -1.6024   -0.1929 C   0  0  2  0  0  0
   10.9314   -2.1254   -0.8242 C   0  0
   10.8697   -3.3551   -1.3637 C   0  0
   12.0766   -4.2883   -1.3555 C   0  0
   13.3089   -3.4995   -1.2663 N   0  0
   13.1296   -2.7952    0.0077 C   0  0  1  0  0  0
   14.6139   -4.1932   -1.0729 C   0  0
   14.8499   -4.1474    0.4269 C   0  0
   14.5258   -2.6346    0.5660 C   0  0
   12.6872   -0.8961   -0.8922 H   0  0
   12.6534   -3.4896    0.7143 H   0  0
    9.5906   -3.8193   -1.9828 C   0  0
    8.5477   -4.0137   -0.8732 C   0  0
    7.2300   -4.4566   -1.5048 C   0  0
    6.1854   -4.6324   -0.4047 C   0  0
    4.8628   -5.0598   -1.0382 C   0  0
    3.8132   -5.2207    0.0599 C   0  0
    2.4879   -5.6364   -0.5758 C   0  0
    1.4348   -5.7862    0.5202 C   0  0
    0.1091   -6.1938   -0.1175 C   0  0
   -0.9497   -6.3389    0.9890 C   0  0
   -2.3349   -6.7712    0.3955 C   0  0  1  0  0  0
   -3.5108   -4.6721    0.0929 C   0  0
   -4.7542   -5.3647    0.8365 C   0  0  1  0  0  0
   -4.4884   -6.8960    1.2338 C   0  0  1  0  0  0
   -3.2162   -6.9200    1.6812 N   0  0
   -3.0018   -5.7310   -0.7360 C   0  0
   -4.9839   -4.5113    1.9553 O   0  0
   -5.5716   -7.3453    2.2198 C   0  0
    1.6838    4.4750   -3.3862 H   0  0
    2.4151    5.2818   -1.9738 H   0  0
   -0.6565    5.0853   -2.6849 H   0  0
   -0.7233    4.5731   -0.2652 H   0  0
    0.6288    5.9562    1.1232 H   0  0
    1.1486    3.6545    0.8086 H   0  0
    0.4173    3.1923   -1.6074 H   0  0
    2.1682    2.8160   -1.4870 H   0  0
    1.2141    7.2155   -2.1354 H   0  0
   -1.7694    6.6449    0.5782 H   0  0
   -2.2729    6.3353   -1.1179 H   0  0
   -1.0321    7.5836   -0.7633 H   0  0
    2.9456    5.2395    1.5117 H   0  0
    3.4168    5.4899   -0.1972 H   0  0
    3.4970    2.8240    1.3268 H   0  0
    3.9866    3.0589   -0.3825 H   0  0
    5.7180    4.6907    0.3315 H   0  0
    5.2331    4.4518    2.0436 H   0  0
    5.7746    2.0322    1.8600 H   0  0
    6.2624    2.2698    0.1495 H   0  0
    8.0258    3.8714    0.8771 H   0  0
    7.5331    3.6323    2.5871 H   0  0
    8.0305    1.2063    2.3930 H   0  0
    8.5145    1.4466    0.6833 H   0  0
   10.3247    3.0231    1.4383 H   0  0
    9.8006    2.7858    3.1363 H   0  0
   11.7964    1.3954    2.6499 H   0  0
   10.3727    0.3600    2.9867 H   0  0
   10.0687    0.0181    0.5203 H   0  0
   11.4930    1.0588    0.2074 H   0  0
   12.9044   -0.4908    1.5505 H   0  0
   11.4794   -1.5354    1.8513 H   0  0
   10.0707   -1.5099   -0.8541 H   0  0
   12.0012   -4.9293   -0.4662 H   0  0
   12.0608   -4.9399   -2.2390 H   0  0
   15.3871   -3.5172   -1.4635 H   0  0
   14.6946   -5.1676   -1.5736 H   0  0
   14.1137   -4.7490    0.9791 H   0  0
   15.8749   -4.4254    0.7083 H   0  0
   14.5377   -2.2578    1.5981 H   0  0
   15.1634   -2.0190   -0.0833 H   0  0
    9.1982   -3.0361   -2.6458 H   0  0
    9.7410   -4.7656   -2.5206 H   0  0
    8.8967   -4.7773   -0.1644 H   0  0
    8.3905   -3.0643   -0.3423 H   0  0
    6.8884   -3.6888   -2.2126 H   0  0
    7.3742   -5.4077   -2.0357 H   0  0
    6.5212   -5.3996    0.3066 H   0  0
    6.0463   -3.6783    0.1225 H   0  0
    4.5324   -4.2901   -1.7493 H   0  0
    4.9965   -6.0143   -1.5659 H   0  0
    4.1390   -5.9899    0.7737 H   0  0
    3.6832   -4.2640    0.5846 H   0  0
    2.1660   -4.8655   -1.2895 H   0  0
    2.6140   -6.5934   -1.1008 H   0  0
    1.7531   -6.5568    1.2358 H   0  0
    1.3106   -4.8279    1.0433 H   0  0
   -0.1979   -5.4216   -0.8338 H   0  0
    0.2312   -7.1525   -0.6398 H   0  0
   -0.6136   -7.1069    1.6987 H   0  0
   -1.0558   -5.3819    1.5162 H   0  0
   -2.2037   -7.7291   -0.1247 H   0  0
   -3.8535   -3.7594   -0.4130 H   0  0
   -2.7091   -4.4242    0.7822 H   0  0
   -5.6617   -5.3938    0.2186 H   0  0
   -4.4960   -7.5712    0.3617 H   0  0
   -2.9303   -7.7929    2.1422 H   0  0
   -3.8815   -6.1488   -1.2536 H   0  0
   -2.2422   -5.4526   -1.4765 H   0  0
   -4.1762   -4.4978    2.5272 H   0  0
   -5.3862   -8.3872    2.5162 H   0  0
   -6.5568   -7.2685    1.7389 H   0  0
   -5.5453   -6.6997    3.1090 H   0  0
  1  2  1  0  0  0
  1  6  1  0  0  0
  2  3  1  0  0  0
  3  4  1  0  0  0
  4  5  1  0  0  0
  5  6  1  0  0  0
  2  7  1  0  0  0
  3  8  1  0  0  0
  9 10  1  0  0  0
 10 11  1  0  0  0
 11 12  1  0  0  0
 12 13  1  0  0  0
 13 14  1  0  0  0
 14 15  1  0  0  0
 15 16  1  0  0  0
 16 17  1  0  0  0
 17 18  1  0  0  0
 18 19  1  0  0  0
 20 21  2  0  0  0
 21 22  1  0  0  0
 22 23  1  0  0  0
 23 24  1  0  0  0
 19 20  1  0  0  0
 19 24  1  0  0  0
  5  9  1  0  0  0
 25 26  1  0  0  0
 26 27  1  0  0  0
 23 25  1  0  0  0
 24 27  1  0  0  0
 19 28  1  0  0  0
 24 29  1  0  0  0
 21 30  1  0  0  0
 30 31  1  0  0  0
 31 32  1  0  0  0
 32 33  1  0  0  0
 33 34  1  0  0  0
 34 35  1  0  0  0
 35 36  1  0  0  0
 36 37  1  0  0  0
 37 38  1  0  0  0
 38 39  1  0  0  0
 41 42  1  0  0  0
 42 43  1  0  0  0
 43 44  1  0  0  0
 41 45  1  0  0  0
 40 44  1  0  0  0
 40 45  1  0  0  0
 42 46  1  0  0  0
 43 47  1  0  0  0
 40 39  1  0  0  0
  1 48  1  0  0  0
  1 49  1  0  0  0
  2 50  1  0  0  0
  3 51  1  0  0  0
  4 52  1  0  0  0
  5 53  1  0  0  0
  6 54  1  0  0  0
  6 55  1  0  0  0
  7 56  1  0  0  0
  8 57  1  0  0  0
  8 58  1  0  0  0
  8 59  1  0  0  0
  9 60  1  0  0  0
  9 61  1  0  0  0
 10 62  1  0  0  0
 10 63  1  0  0  0
 11 64  1  0  0  0
 11 65  1  0  0  0
 12 66  1  0  0  0
 12 67  1  0  0  0
 13 68  1  0  0  0
 13 69  1  0  0  0
 14 70  1  0  0  0
 14 71  1  0  0  0
 15 72  1  0  0  0
 15 73  1  0  0  0
 16 74  1  0  0  0
 16 75  1  0  0  0
 17 76  1  0  0  0
 17 77  1  0  0  0
 18 78  1  0  0  0
 18 79  1  0  0  0
 20 80  1  0  0  0
 22 81  1  0  0  0
 22 82  1  0  0  0
 25 83  1  0  0  0
 25 84  1  0  0  0
 26 85  1  0  0  0
 26 86  1  0  0  0
 27 87  1  0  0  0
 27 88  1  0  0  0
 30 89  1  0  0  0
 30 90  1  0  0  0
 31 91  1  0  0  0
 31 92  1  0  0  0
 32 93  1  0  0  0
 32 94  1  0  0  0
 33 95  1  0  0  0
 33 96  1  0  0  0
 34 97  1  0  0  0
 34 98  1  0  0  0
 35 99  1  0  0  0
 35100  1  0  0  0
 36101  1  0  0  0
 36102  1  0  0  0
 37103  1  0  0  0
 37104  1  0  0  0
 38105  1  0  0  0
 38106  1  0  0  0
 39107  1  0  0  0
 39108  1  0  0  0
 40109  1  0  0  0
 41110  1  0  0  0
 41111  1  0  0  0
 42112  1  0  0  0
 43113  1  0  0  0
 44114  1  0  0  0
 45115  1  0  0  0
 45116  1  0  0  0
 46117  1  0  0  0
 47118  1  0  0  0
 47119  1  0  0  0
 47120  1  0  0  0
M  END
> <Clean Energy>
-0.317628

$$$$
RB2013_4
  SciTegic12132405553D

 55 58  0  0  0  0            999 V2000
  -63.5223   29.0045    0.6047 C   0  0
  -64.8396   28.3268   -0.1866 C   0  0
  -64.5819   26.7922   -0.8279 C   0  0
  -63.7477   26.0761    0.1068 C   0  0  1  0  0  0
  -62.2548   26.9177    0.1084 C   0  0  2  0  0  0
  -62.3200   28.6027   -0.1267 C   0  0  2  0  0  0
  -60.8706   29.1896    0.4944 C   0  0  1  0  0  0
  -61.1730   26.4681   -0.9598 C   0  0
  -59.8300   27.0499   -0.4339 C   0  0
  -59.6036   28.5912   -0.3088 C   0  0  1  0  0  0
  -60.9509   30.7416    0.3078 C   0  0
  -59.7609   31.5823    0.3739 C   0  0
  -58.6700   30.8596   -0.5030 C   0  0  2  0  0  0
  -59.1940   29.5860   -1.5217 C   0  0
  -57.9329   30.0587    0.4544 C   0  0
  -58.2451   28.6946    0.3994 C   0  0
  -57.0322   30.5586    1.2970 C   0  0
  -64.5375   26.0218    1.5325 C   0  0
  -63.5254   24.5749   -0.2974 C   0  0
  -64.1395   24.2055   -1.3038 O   0  0
  -62.6874   23.5408    0.3461 O   0  0
  -61.8958   23.7977    1.5418 C   0  0
  -58.0222   31.6375   -0.9282 H   0  0
  -60.7903   28.8380    1.5312 H   0  0
  -61.8704   26.6134    1.0872 H   0  0
  -62.5402   29.1212   -1.7325 C   0  0
  -63.6767   30.0885    0.6748 H   0  0
  -63.3947   28.5886    1.6112 H   0  0
  -65.6494   28.3300    0.5565 H   0  0
  -65.1639   28.9394   -1.0394 H   0  0
  -65.5544   26.3175   -1.0132 H   0  0
  -64.0136   26.8251   -1.7614 H   0  0
  -61.4251   26.7471   -1.9844 H   0  0
  -61.0604   25.3805   -0.9069 H   0  0
  -59.7853   26.6550    0.5908 H   0  0
  -58.9888   26.6415   -1.0088 H   0  0
  -61.7632   31.1661    0.9098 H   0  0
  -61.1939   30.9189   -0.7107 H   0  0
  -60.1403   32.4759   -0.1387 H   0  0
  -59.3547   31.8630    1.3534 H   0  0
  -59.9483   29.8277   -2.2733 H   0  0
  -58.3110   29.1561   -2.0128 H   0  0
  -58.2140   28.2057    1.3818 H   0  0
  -57.4867   28.2238   -0.2397 H   0  0
  -56.8247   31.5987    1.2961 H   0  0
  -56.5230   29.9158    1.9685 H   0  0
  -63.9302   25.4883    2.2574 H   0  0
  -65.4815   25.4791    1.3887 H   0  0
  -64.7574   26.9957    1.9544 H   0  0
  -61.3613   22.8794    1.8216 H   0  0
  -62.5492   24.0957    2.3668 H   0  0
  -61.1660   24.5904    1.3450 H   0  0
  -62.6122   30.2109   -1.7649 H   0  0
  -63.4201   28.7260   -2.2117 H   0  0
  -61.6931   28.8097   -2.3381 H   0  0
  1  2  1  0
  2  3  1  0
  4  3  1  0
  5  4  1  0
  5  6  1  0
  1  6  1  0
  8  9  1  0
  9 10  1  0
  7 10  1  0
  7  6  1  0
 11 12  1  0
 12 13  1  0
 13 14  1  0
  7 11  1  0
 10 14  1  0
 13 15  1  0
 10 16  1  0
 15 16  1  0
 15 17  2  0
  4 19  1  0
  4 18  1  0
 19 20  2  0
 19 21  1  0
 22 21  1  0
 13 23  1  0
  7 24  1  0
  5  8  1  0
  5 25  1  0
  6 26  1  0
  1 27  1  0
  1 28  1  0
  2 29  1  0
  2 30  1  0
  3 31  1  0
  3 32  1  0
  8 33  1  0
  8 34  1  0
  9 35  1  0
  9 36  1  0
 11 37  1  0
 11 38  1  0
 12 39  1  0
 12 40  1  0
 14 41  1  0
 14 42  1  0
 16 43  1  0
 16 44  1  0
 17 45  1  0
 17 46  1  0
 18 47  1  0
 18 48  1  0
 18 49  1  0
 22 50  1  0
 22 51  1  0
 22 52  1  0
 26 53  1  0
 26 54  1  0
 26 55  1  0
M  END
> <Name>
RB2013_4

> <Clean Energy>
244.96

$$$$
RB2013_5
  SciTegic12132405553D

 55 58  0  0  0  0            999 V2000
  -63.8753   29.0633    0.1715 C   0  0
  -65.1030   27.9413   -0.0697 C   0  0
  -64.5543   26.3722   -0.3788 C   0  0
  -63.3634   26.1558    0.4463 C   0  0  1  0  0  0
  -62.2588   27.2767   -0.2001 C   0  0  2  0  0  0
  -62.7630   28.6710   -0.7027 C   0  0  2  0  0  0
  -61.3728   29.6052   -0.6336 C   0  0  2  0  0  0
  -61.3608   26.7784   -1.5253 C   0  0
  -60.3622   27.9494   -2.2380 C   0  0
  -59.9271   28.7949   -1.1527 C   0  0  1  0  0  0
  -60.9931   30.0815    0.7859 C   0  0
  -59.7471   30.9803    0.7456 C   0  0
  -58.5574   30.2650    0.0585 C   0  0  2  0  0  0
  -58.8721   29.8496   -1.3754 C   0  0
  -58.3675   28.8848    0.6240 C   0  0
  -59.1411   28.0231   -0.0565 C   0  0
  -57.4541   28.5247    1.7475 C   0  0
  -63.8029   26.3438    2.0039 C   0  0
  -62.7808   24.7053    0.3302 C   0  0
  -63.4305   23.9322   -0.3816 O   0  0
  -61.5625   24.1358    0.9336 O   0  0
  -60.6867   24.9119    1.7933 C   0  0
  -57.6758   30.9157    0.1298 H   0  0
  -61.6358   30.4762   -1.2474 H   0  0
  -61.5809   27.4059    0.6392 H   0  0
  -63.4469   28.8072   -2.2599 C   0  0
  -64.2522   30.0819    0.0127 H   0  0
  -63.4832   28.9773    1.1889 H   0  0
  -65.7203   27.9947    0.8380 H   0  0
  -65.7391   28.1952   -0.9289 H   0  0
  -65.3692   25.6621   -0.1867 H   0  0
  -64.2163   26.2616   -1.4149 H   0  0
  -61.9981   26.4065   -2.3387 H   0  0
  -60.7571   25.9455   -1.1429 H   0  0
  -59.5520   27.4393   -2.7744 H   0  0
  -60.8793   28.6147   -2.9211 H   0  0
  -60.8024   29.2123    1.4215 H   0  0
  -61.8202   30.6515    1.2256 H   0  0
  -59.9594   31.9059    0.1940 H   0  0
  -59.4824   31.2246    1.7831 H   0  0
  -59.1670   30.6587   -2.0567 H   0  0
  -57.9758   29.3472   -1.7628 H   0  0
  -59.1870   26.9851    0.1248 H   0  0
  -57.4715   27.4412    1.9324 H   0  0
  -57.7669   29.0783    2.6441 H   0  0
  -56.4397   28.8710    1.5056 H   0  0
  -62.9342   26.2140    2.6416 H   0  0
  -64.5471   25.5753    2.2524 H   0  0
  -64.2228   27.3177    2.2259 H   0  0
  -59.8417   24.2836    2.1069 H   0  0
  -61.2314   25.2455    2.6806 H   0  0
  -60.3062   25.7778    1.2502 H   0  0
  -63.7355   29.8561   -2.4071 H   0  0
  -64.3195   28.1883   -2.4174 H   0  0
  -62.7518   28.5454   -3.0352 H   0  0
  1  2  1  0
  2  3  1  0
  4  3  1  0
  5  4  1  0
  5  6  1  0
  1  6  1  0
  8  9  1  0
  9 10  1  0
  7 10  1  0
  7  6  1  0
 11 12  1  0
 12 13  1  0
 13 14  1  0
  7 11  1  0
 10 14  1  0
 13 15  1  0
 10 16  1  0
  4 19  1  0
  4 18  1  0
 19 20  2  0
 19 21  1  0
 22 21  1  0
  5  8  1  0
  5 25  1  0
  6 26  1  0
 15 16  2  0
 15 17  1  0
  7 24  1  0
 13 23  1  0
  1 27  1  0
  1 28  1  0
  2 29  1  0
  2 30  1  0
  3 31  1  0
  3 32  1  0
  8 33  1  0
  8 34  1  0
  9 35  1  0
  9 36  1  0
 11 37  1  0
 11 38  1  0
 12 39  1  0
 12 40  1  0
 14 41  1  0
 14 42  1  0
 16 43  1  0
 17 44  1  0
 17 45  1  0
 17 46  1  0
 18 47  1  0
 18 48  1  0
 18 49  1  0
 22 50  1  0
 22 51  1  0
 22 52  1  0
 26 53  1  0
 26 54  1  0
 26 55  1  0
M  END
> <Name>
RB2013_5

> <Clean Energy>
237.996

$$$$
RB2013_6
  SciTegic12132405553D

 53 56  0  0  0  0            999 V2000
  -63.4359   28.9287    0.9543 C   0  0
  -64.8332   28.2735    0.2901 C   0  0
  -64.6395   26.8253   -0.5337 C   0  0
  -63.6801   26.0501    0.2012 C   0  0  1  0  0  0
  -62.2195   26.9281    0.0821 C   0  0  2  0  0  0
  -62.3519   28.6297    0.0194 C   0  0  2  0  0  0
  -60.9687   29.3307    0.1888 C   0  0
  -61.2557   26.5879   -1.1370 C   0  0
  -59.9236   27.1203   -0.5773 C   0  0
  -59.6840   28.6290   -0.3488 C   0  0  1  0  0  0
  -61.0258   30.6573    0.3861 C   0  0
  -59.9252   31.5396   -0.0569 C   0  0
  -58.7190   30.7862   -0.5424 C   0  0  2  0  0  0
  -59.1002   29.5324   -1.4697 C   0  0
  -58.1182   30.1177    0.5969 C   0  0
  -58.4271   28.7098    0.5755 C   0  0
  -57.3854   30.7161    1.5312 C   0  0
  -64.2621   25.8370    1.7113 C   0  0
  -63.4914   24.6018   -0.3779 C   0  0
  -64.2223   24.3192   -1.3331 O   0  0
  -62.5642   23.5301    0.0461 O   0  0
  -61.6305   23.6839    1.1543 C   0  0
  -58.0516   31.5283   -1.0002 H   0  0
  -61.7111   26.5418    0.9689 H   0  0
  -62.7737   29.3136   -1.4454 C   0  0
  -63.6145   29.9981    1.1218 H   0  0
  -63.1466   28.4503    1.8985 H   0  0
  -65.5333   28.1785    1.1321 H   0  0
  -65.2858   28.9524   -0.4460 H   0  0
  -65.6202   26.3420   -0.6330 H   0  0
  -64.2049   26.9688   -1.5279 H   0  0
  -61.5754   26.9650   -2.1137 H   0  0
  -61.1334   25.5017   -1.1888 H   0  0
  -59.9366   26.6673    0.4200 H   0  0
  -59.0527   26.7285   -1.1184 H   0  0
  -61.9445   31.1158    0.6269 H   0  0
  -60.3459   32.0708   -0.9211 H   0  0
  -59.6741   32.2986    0.6961 H   0  0
  -59.7472   29.7473   -2.3309 H   0  0
  -58.1718   29.0547   -1.8103 H   0  0
  -58.5581   28.2629    1.5696 H   0  0
  -57.5920   28.2040    0.0734 H   0  0
  -57.2034   31.7595    1.4747 H   0  0
  -56.9841   30.1492    2.3319 H   0  0
  -63.5523   25.2544    2.2890 H   0  0
  -65.2087   25.2837    1.6462 H   0  0
  -64.4350   26.7582    2.2560 H   0  0
  -61.0506   22.7572    1.2653 H   0  0
  -62.1778   23.8750    2.0815 H   0  0
  -60.9443   24.5135    0.9541 H   0  0
  -62.8590   30.4005   -1.3371 H   0  0
  -63.7044   28.9497   -1.8552 H   0  0
  -61.9897   29.0954   -2.1788 H   0  0
  1  2  1  0
  2  3  1  0
  4  3  1  0
  5  4  1  0
  5  6  1  0
  1  6  1  0
  8  9  1  0
  9 10  1  0
  7 10  1  0
  7  6  1  0
 11 12  1  0
 12 13  1  0
 13 14  1  0
 10 14  1  0
 13 15  1  0
 10 16  1  0
  4 19  1  0
  4 18  1  0
 19 20  2  0
 19 21  1  0
 22 21  1  0
  5  8  1  0
  6 25  1  0
 15 17  2  0
 13 23  1  0
 15 16  1  0
  7 11  2  0
  5 24  1  0
  1 26  1  0
  1 27  1  0
  2 28  1  0
  2 29  1  0
  3 30  1  0
  3 31  1  0
  8 32  1  0
  8 33  1  0
  9 34  1  0
  9 35  1  0
 11 36  1  0
 12 37  1  0
 12 38  1  0
 14 39  1  0
 14 40  1  0
 16 41  1  0
 16 42  1  0
 17 43  1  0
 17 44  1  0
 18 45  1  0
 18 46  1  0
 18 47  1  0
 22 48  1  0
 22 49  1  0
 22 50  1  0
 25 51  1  0
 25 52  1  0
 25 53  1  0
M  END
> <Name>
RB2013_6

> <Clean Energy>
229.499

$$$$
RB2013_7
  SciTegic12132405553D

 56 60  0  0  0  0            999 V2000
  -63.6888   29.0035    0.4394 C   0  0
  -64.9346   28.3105   -0.4480 C   0  0
  -64.5988   26.7827   -1.0752 C   0  0
  -63.8385   26.0706   -0.0754 C   0  0  1  0  0  0
  -62.3638   26.9279    0.0625 C   0  0  2  0  0  0
  -62.4315   28.6187   -0.2045 C   0  0  2  0  0  0
  -61.0668   29.1880    0.5188 C   0  0  1  0  0  0
  -61.1656   26.4616   -0.8602 C   0  0
  -59.8405   27.0172   -0.1930 C   0  0
  -59.6040   28.5416   -0.0891 C   0  0  1  0  0  0
  -61.1475   30.8304    0.4814 C   0  0
  -59.9117   31.0773    0.9723 C   0  0
  -58.9281   30.6886   -0.2696 C   0  0  2  0  0  0
  -59.2736   29.3745   -1.2146 C   0  0
  -57.8189   30.2492    0.5220 C   0  0  1  0  0  0
  -58.1751   28.7616    0.6877 C   0  0
  -64.7471   26.0035    1.2778 C   0  0
  -63.5659   24.5721   -0.4615 C   0  0
  -64.0780   24.2020   -1.5231 O   0  0
  -62.7827   23.5412    0.2551 O   0  0
  -62.1103   23.7961    1.5232 C   0  0
  -58.7523   31.5790   -0.8864 H   0  0
  -62.0772   26.6369    1.0791 H   0  0
  -62.5513   29.1761   -1.7876 C   0  0
  -56.8009   30.1388   -0.5284 O   0  0
  -56.4577   30.8678    0.6452 C   0  0
  -61.1127   28.8112    1.5502 H   0  0
  -63.8617   30.0846    0.5059 H   0  0
  -63.6292   28.5811    1.4501 H   0  0
  -65.7978   28.2970    0.2321 H   0  0
  -65.2052   28.9215   -1.3203 H   0  0
  -65.5455   26.2957   -1.3434 H   0  0
  -63.9540   26.8303   -1.9582 H   0  0
  -61.3036   26.7360   -1.9117 H   0  0
  -61.0751   25.3746   -0.7843 H   0  0
  -59.8856   26.6346    0.8363 H   0  0
  -58.9649   26.5876   -0.6961 H   0  0
  -61.9787   31.1677    1.1125 H   0  0
  -61.2181   31.2792   -0.5187 H   0  0
  -59.6777   32.0978    1.3019 H   0  0
  -59.8620   30.4023    1.8409 H   0  0
  -60.0657   29.4885   -1.8734 H   0  0
  -58.3801   29.0704   -1.7738 H   0  0
  -58.1290   28.3756    1.7142 H   0  0
  -57.4453   28.2280    0.0657 H   0  0
  -64.1989   25.4742    2.0504 H   0  0
  -65.6696   25.4518    1.0529 H   0  0
  -65.0119   26.9733    1.6831 H   0  0
  -61.5946   22.8808    1.8454 H   0  0
  -62.8417   24.0799    2.2849 H   0  0
  -61.3739   24.5977    1.4031 H   0  0
  -62.6074   30.2700   -1.7841 H   0  0
  -63.4010   28.8041   -2.3348 H   0  0
  -61.6857   28.8684   -2.3489 H   0  0
  -56.5160   31.9657    0.6338 H   0  0
  -55.8752   30.3824    1.4408 H   0  0
  1  2  1  0
  2  3  1  0
  4  3  1  0
  5  4  1  0
  5  6  1  0
  1  6  1  0
  8  9  1  0
  9 10  1  0
  7 10  1  0
  7  6  1  0
 11 12  1  0
 12 13  1  0
 13 14  1  0
 10 14  1  0
 13 15  1  0
 10 16  1  0
  4 18  1  0
  4 17  1  0
 18 19  2  0
 18 20  1  0
 21 20  1  0
  5  8  1  0
  6 24  1  0
 15 16  1  0
  5 23  1  0
 15 26  1  0
 26 25  1  0
 15 25  1  0
  7 11  1  0
  7 27  1  0
 13 22  1  0
  1 28  1  0
  1 29  1  0
  2 30  1  0
  2 31  1  0
  3 32  1  0
  3 33  1  0
  8 34  1  0
  8 35  1  0
  9 36  1  0
  9 37  1  0
 11 38  1  0
 11 39  1  0
 12 40  1  0
 12 41  1  0
 14 42  1  0
 14 43  1  0
 16 44  1  0
 16 45  1  0
 17 46  1  0
 17 47  1  0
 17 48  1  0
 21 49  1  0
 21 50  1  0
 21 51  1  0
 24 52  1  0
 24 53  1  0
 24 54  1  0
 26 55  1  0
 26 56  1  0
M  END
> <Name>
RB2013_7

> <Clean Energy>
321.673

$$$$
RB2013_8
  SciTegic12132405553D

 55 60  0  0  0  0            999 V2000
  -62.5203   29.8835    1.3547 C   0  0
  -64.1202   30.1537    0.9271 C   0  0
  -64.7502   28.9953   -0.1261 C   0  0
  -64.1886   27.7003    0.2685 C   0  0  1  0  0  0
  -62.5320   27.9133   -0.0547 C   0  0  2  0  0  0
  -61.8673   29.3195    0.1756 C   0  0  2  0  0  0
  -60.2864   28.9100    0.3116 C   0  0  2  0  0  0
  -62.0200   27.5255   -1.5855 C   0  0
  -60.4167   27.8727   -1.9149 C   0  0
  -59.6517   27.7112   -0.6675 C   0  0  1  0  0  0
  -59.6908   28.7484    1.6784 C   0  0  1  0  0  0
  -58.1782   28.5210    1.7922 C   0  0
  -57.7338   27.4644    0.7550 C   0  0  2  0  0  0
  -58.1031   27.8128   -0.7210 C   0  0
  -58.6554   26.2819    1.0650 C   0  0  1  0  0  0
  -59.6340   26.2130   -0.1369 C   0  0
  -64.6270   27.4243    1.8163 C   0  0
  -64.7446   26.5015   -0.5686 C   0  0
  -65.6063   26.8002   -1.4028 O   0  0
  -64.3788   25.0763   -0.5223 O   0  0
  -63.3778   24.5631    0.3935 C   0  0
  -56.6572   27.2810    0.8970 H   0  0
  -62.0869   27.1885    0.6270 H   0  0
  -61.9938   30.5493   -0.9770 C   0  0
  -57.9483   25.0348    0.7143 O   0  0
  -58.3234   25.1893    2.0610 C   0  0
  -59.4744   29.8565    0.6392 O   0  0
  -60.0831   29.3541    2.4822 H   0  0
  -62.0681   30.8096    1.7352 H   0  0
  -62.4538   29.1047    2.1207 H   0  0
  -64.6675   30.1948    1.8795 H   0  0
  -64.2595   31.1160    0.4139 H   0  0
  -65.8462   29.0383   -0.0921 H   0  0
  -64.4140   29.1610   -1.1563 H   0  0
  -62.5935   28.0538   -2.3581 H   0  0
  -62.2085   26.4508   -1.6725 H   0  0
  -60.0732   27.2360   -2.7416 H   0  0
  -60.2710   28.9104   -2.1886 H   0  0
  -57.6422   29.4773    1.6366 H   0  0
  -57.9464   28.1296    2.7839 H   0  0
  -57.6983   28.7723   -1.0628 H   0  0
  -57.7518   27.0055   -1.3837 H   0  0
  -60.5894   25.7469    0.1070 H   0  0
  -59.1479   25.6479   -0.9399 H   0  0
  -64.2015   26.4834    2.1482 H   0  0
  -65.7217   27.3584    1.8622 H   0  0
  -64.2966   28.1884    2.5107 H   0  0
  -63.2662   23.4822    0.2338 H   0  0
  -63.6869   24.7410    1.4266 H   0  0
  -62.4220   25.0525    0.2072 H   0  0
  -61.4461   31.4240   -0.6001 H   0  0
  -63.0112   30.8507   -1.1959 H   0  0
  -61.5538   30.2556   -1.9169 H   0  0
  -57.6141   25.5533    2.8229 H   0  0
  -59.2136   24.6367    2.3937 H   0  0
  1  2  1  0
  2  3  1  0
  4  3  1  0
  5  4  1  0
  6  5  1  0
  6  1  1  0
  8  9  1  0
  9 10  1  0
  7 10  1  0
  7  6  1  0
 11 12  1  0
 12 13  1  0
 13 14  1  0
 10 14  1  0
 13 15  1  0
 10 16  1  0
  4 18  1  0
  4 17  1  0
 18 19  2  0
 18 20  1  0
 21 20  1  0
  5  8  1  0
  6 24  1  0
 15 16  1  0
  5 23  1  0
 15 26  1  0
 26 25  1  0
 15 25  1  0
  7 11  1  0
 11 27  1  0
  7 27  1  0
 13 22  1  0
 11 28  1  0
  1 29  1  0
  1 30  1  0
  2 31  1  0
  2 32  1  0
  3 33  1  0
  3 34  1  0
  8 35  1  0
  8 36  1  0
  9 37  1  0
  9 38  1  0
 12 39  1  0
 12 40  1  0
 14 41  1  0
 14 42  1  0
 16 43  1  0
 16 44  1  0
 17 45  1  0
 17 46  1  0
 17 47  1  0
 21 48  1  0
 21 49  1  0
 21 50  1  0
 24 51  1  0
 24 52  1  0
 24 53  1  0
 26 54  1  0
 26 55  1  0
M  END
> <Name>
RB2013_8

> <Clean Energy>
373.377

$$$$
RB2013_9
  SciTegic12132405553D

 55 60  0  0  0  0            999 V2000
  -62.0813   28.7622   -0.0907 C   0  0
  -63.4641   27.8229   -0.2544 C   0  0
  -63.2820   26.2038    0.1788 C   0  0
  -62.4244   26.1655    1.3392 C   0  0  1  0  0  0
  -60.9115   26.7568    0.7971 C   0  0  2  0  0  0
  -60.9432   27.9221   -0.4479 C   0  0  2  0  0  0
  -59.4792   28.6799   -0.3472 C   0  0  2  0  0  0
  -59.8759   25.7079    0.2470 C   0  0
  -58.4806   26.4355    0.2677 C   0  0
  -58.2262   27.6766   -0.6428 C   0  0  1  0  0  0
  -59.0394   30.0716   -0.9888 C   0  0  1  0  0  0
  -58.4794   30.1529   -2.3853 C   0  0
  -57.4174   28.9932   -2.5818 C   0  0  2  0  0  0
  -57.9424   27.4992   -2.2290 C   0  0
  -56.3001   29.0872   -1.5077 C   0  0  2  0  0  0
  -56.7565   28.1857   -0.3410 C   0  0
  -63.1454   27.0391    2.5105 C   0  0
  -62.2689   24.7189    1.9343 C   0  0
  -62.9356   23.8453    1.3696 O   0  0
  -61.4409   24.2475    3.0635 O   0  0
  -60.5943   25.1362    3.8450 C   0  0
  -57.0222   29.0928   -3.6033 H   0  0
  -60.4981   27.1154    1.7466 H   0  0
  -61.2459   27.3891   -2.0263 C   0  0
  -56.3384   30.5530   -1.2024 O   0  0
  -55.0961   30.0140   -1.4627 C   0  0
  -59.8731   29.2380   -1.5246 O   0  0
  -59.6805   30.9183   -0.7297 H   0  0
  -62.1891   29.6672   -0.7028 H   0  0
  -61.9074   29.0459    0.9544 H   0  0
  -64.2280   28.3293    0.3523 H   0  0
  -63.8221   27.7991   -1.2929 H   0  0
  -64.2756   25.7677    0.3462 H   0  0
  -62.7606   25.6276   -0.5908 H   0  0
  -60.1572   25.2918   -0.7247 H   0  0
  -59.7895   24.8927    0.9725 H   0  0
  -58.3817   26.7804    1.3066 H   0  0
  -57.6842   25.7115    0.0545 H   0  0
  -59.3002   30.0549   -3.1121 H   0  0
  -57.9765   31.1166   -2.5383 H   0  0
  -58.7688   27.1672   -2.8199 H   0  0
  -57.1032   26.8044   -2.3647 H   0  0
  -56.5455   28.5415    0.6758 H   0  0
  -56.1614   27.2810   -0.5186 H   0  0
  -62.5211   27.0299    3.3990 H   0  0
  -64.1122   26.5746    2.7486 H   0  0
  -63.3133   28.0773    2.2484 H   0  0
  -60.0781   24.5500    4.6181 H   0  0
  -61.2039   25.9050    4.3278 H   0  0
  -59.8489   25.6093    3.1973 H   0  0
  -61.2750   28.2401   -2.7193 H   0  0
  -62.1695   26.8471   -2.1431 H   0  0
  -60.4727   26.7121   -2.3331 H   0  0
  -54.4238   29.8198   -0.6156 H   0  0
  -54.6657   30.2365   -2.4475 H   0  0
  1  2  1  0
  2  3  1  0
  4  3  1  0
  5  4  1  0
  6  5  1  0
  6  1  1  0
  8  9  1  0
  9 10  1  0
  7 10  1  0
  7  6  1  0
 11 12  1  0
 13 12  1  0
 13 14  1  0
 10 14  1  0
 13 15  1  0
 10 16  1  0
  4 18  1  0
  4 17  1  0
 18 19  2  0
 18 20  1  0
 21 20  1  0
  5  8  1  0
  6 24  1  0
 15 16  1  0
  5 23  1  0
 15 26  1  0
 26 25  1  0
  7 11  1  0
 11 27  1  0
  7 27  1  0
 11 28  1  0
 13 22  1  0
 15 25  1  0
  1 29  1  0
  1 30  1  0
  2 31  1  0
  2 32  1  0
  3 33  1  0
  3 34  1  0
  8 35  1  0
  8 36  1  0
  9 37  1  0
  9 38  1  0
 12 39  1  0
 12 40  1  0
 14 41  1  0
 14 42  1  0
 16 43  1  0
 16 44  1  0
 17 45  1  0
 17 46  1  0
 17 47  1  0
 21 48  1  0
 21 49  1  0
 21 50  1  0
 24 51  1  0
 24 52  1  0
 24 53  1  0
 26 54  1  0
 26 55  1  0
M  END
> <Name>
RB2013_9

> <Clean Energy>
364.473

$$$$
RB2013_10a
  SciTegic12132405553D

 51 55  0  0  0  0            999 V2000
  -62.7891   28.9702    1.0954 C   0  0
  -64.1844   28.2815    0.4642 C   0  0
  -63.9653   26.9240   -0.4920 C   0  0
  -62.8959   26.1627    0.1051 C   0  0  1  0  0  0
  -61.5000   27.1183   -0.0049 C   0  0  2  0  0  0
  -61.7429   28.8104    0.0838 C   0  0  2  0  0  0
  -60.4005   29.5820    0.2442 C   0  0
  -60.5728   26.9513   -1.2925 C   0  0
  -59.2502   27.5190   -0.7430 C   0  0
  -59.1053   29.0107   -0.3766 C   0  0  1  0  0  0
  -59.4910   31.8751    0.0469 C   0  0
  -60.5293   30.8970    0.4931 C   0  0
  -58.5703   30.0274   -1.4454 C   0  0
  -58.2306   31.2317   -0.4622 C   0  0  2  0  0  0
  -57.6695   30.5684    0.7523 C   0  0  2  0  0  0
  -57.8054   29.0986    0.4624 C   0  0
  -56.7526   31.4810    1.4812 O   0  0
  -56.1677   30.3525    0.9436 C   0  0
  -62.2872   29.5738   -1.3007 C   0  0
  -63.3113   25.7717    1.6089 C   0  0
  -62.5970   24.7736   -0.4686 C   0  0
  -61.4847   24.2713   -0.2719 O   0  0
  -63.5629   24.0067   -1.1580 O   0  0
  -60.9267   26.6864    0.8231 H   0  0
  -57.5934   32.0185   -0.8865 H   0  0
  -63.0181   30.0111    1.3569 H   0  0
  -62.4171   28.4413    1.9815 H   0  0
  -64.8166   28.0694    1.3380 H   0  0
  -64.7262   28.9884   -0.1800 H   0  0
  -64.9184   26.3838   -0.5582 H   0  0
  -63.6196   27.1748   -1.4998 H   0  0
  -60.9618   27.3934   -2.2151 H   0  0
  -60.3848   25.8862   -1.4521 H   0  0
  -59.1878   26.9760    0.2056 H   0  0
  -58.3805   27.2412   -1.3525 H   0  0
  -59.9553   32.4076   -0.7934 H   0  0
  -59.2826   32.6188    0.8274 H   0  0
  -61.4653   31.2871    0.7862 H   0  0
  -59.2302   30.2734   -2.2891 H   0  0
  -57.6297   29.6077   -1.8251 H   0  0
  -57.7830   28.5016    1.3842 H   0  0
  -57.0094   28.7552   -0.2159 H   0  0
  -55.6703   30.2914   -0.0350 H   0  0
  -55.9001   29.6198    1.7185 H   0  0
  -62.4385   30.6411   -1.1064 H   0  0
  -63.2139   29.1782   -1.6887 H   0  0
  -61.5319   29.4650   -2.0875 H   0  0
  -62.4853   25.2001    2.0528 H   0  0
  -64.2088   25.1392    1.5725 H   0  0
  -63.5091   26.6223    2.2528 H   0  0
  -64.4224   24.4713   -1.2335 H   0  0
  1  2  1  0
  2  3  1  0
  3  4  1  0
  4  5  1  0
  5  6  1  0
  1  6  1  0
  8  9  1  0
  9 10  1  0
  7 10  1  0
  5  8  1  0
  7  6  1  0
 11 12  1  0
 13 14  1  0
 11 14  1  0
 12  7  2  0
 10 13  1  0
 14 15  1  0
 10 16  1  0
 15 16  1  0
 17 18  1  0
 18 15  1  0
  6 19  1  0
  4 20  1  0
  4 21  1  0
 21 22  2  0
 21 23  1  0
  5 24  1  0
 15 17  1  0
 14 25  1  0
  1 26  1  0
  1 27  1  0
  2 28  1  0
  2 29  1  0
  3 30  1  0
  3 31  1  0
  8 32  1  0
  8 33  1  0
  9 34  1  0
  9 35  1  0
 11 36  1  0
 11 37  1  0
 12 38  1  0
 13 39  1  0
 13 40  1  0
 16 41  1  0
 16 42  1  0
 18 43  1  0
 18 44  1  0
 19 45  1  0
 19 46  1  0
 19 47  1  0
 20 48  1  0
 20 49  1  0
 20 50  1  0
 23 51  1  0
M  END
> <Name>
RB2013_10a

> <Clean Energy>
306.693

$$$$
RB2013_10b
  SciTegic12132405553D

 51 55  0  0  0  0            999 V2000
  -62.7064   29.1517    1.1833 C   0  0
  -64.1790   28.5482    0.6470 C   0  0
  -64.1088   27.1489   -0.2706 C   0  0
  -63.0687   26.3293    0.2993 C   0  0  1  0  0  0
  -61.6161   27.1745    0.0899 C   0  0  2  0  0  0
  -61.7281   28.8821    0.1275 C   0  0  2  0  0  0
  -60.3235   29.5563    0.1931 C   0  0
  -60.7702   26.8929   -1.2298 C   0  0
  -59.3859   27.3792   -0.7643 C   0  0
  -59.1095   28.8685   -0.4708 C   0  0  1  0  0  0
  -59.2632   31.7579   -0.1272 C   0  0
  -60.3407   30.8809    0.4062 C   0  0
  -58.5617   29.8039   -1.6121 C   0  0
  -58.0792   31.0133   -0.6946 C   0  0  2  0  0  0
  -57.4460   30.3276    0.4768 C   0  0  1  0  0  0
  -57.7701   28.8811    0.3031 C   0  0
  -56.0131   30.1387    0.1614 O   0  0
  -56.3110   30.9218    1.2841 C   0  0
  -62.2854   29.6383   -1.2548 C   0  0
  -63.4292   26.0166    1.8343 C   0  0
  -62.8979   24.9049   -0.2406 C   0  0
  -61.8259   24.3192   -0.0501 O   0  0
  -63.9352   24.2020   -0.8948 O   0  0
  -61.0356   26.7288    0.9053 H   0  0
  -57.4273   31.7483   -1.1848 H   0  0
  -62.8454   30.2146    1.4184 H   0  0
  -62.3282   28.6251    2.0681 H   0  0
  -64.7784   28.4108    1.5581 H   0  0
  -64.7012   29.2724    0.0060 H   0  0
  -65.1008   26.6788   -0.2713 H   0  0
  -63.7983   27.3419   -1.3023 H   0  0
  -61.1701   27.3297   -2.1505 H   0  0
  -60.6686   25.8115   -1.3553 H   0  0
  -59.3164   26.8702    0.2024 H   0  0
  -58.5710   27.0127   -1.4017 H   0  0
  -59.7395   32.2965   -0.9574 H   0  0
  -58.9578   32.5102    0.6119 H   0  0
  -61.2280   31.3497    0.7336 H   0  0
  -59.2560   30.0666   -2.4225 H   0  0
  -57.6768   29.3064   -2.0301 H   0  0
  -57.7530   28.3304    1.2537 H   0  0
  -57.0478   28.4349   -0.3921 H   0  0
  -56.1855   30.4394    2.2645 H   0  0
  -56.3235   32.0204    1.2364 H   0  0
  -62.3466   30.7198   -1.0918 H   0  0
  -63.2579   29.3017   -1.5818 H   0  0
  -61.5821   29.4468   -2.0734 H   0  0
  -62.6231   25.4002    2.2547 H   0  0
  -64.3700   25.4504    1.8662 H   0  0
  -63.5308   26.8992    2.4570 H   0  0
  -64.7553   24.7322   -0.9706 H   0  0
  1  2  1  0
  2  3  1  0
  3  4  1  0
  4  5  1  0
  5  6  1  0
  1  6  1  0
  8  9  1  0
  9 10  1  0
  7 10  1  0
  5  8  1  0
  7  6  1  0
 11 12  1  0
 13 14  1  0
 11 14  1  0
 12  7  2  0
 10 13  1  0
 14 15  1  0
 10 16  1  0
 15 16  1  0
 17 18  1  0
 18 15  1  0
  6 19  1  0
  4 20  1  0
  4 21  1  0
 21 22  2  0
 21 23  1  0
  5 24  1  0
 14 25  1  0
 15 17  1  0
  1 26  1  0
  1 27  1  0
  2 28  1  0
  2 29  1  0
  3 30  1  0
  3 31  1  0
  8 32  1  0
  8 33  1  0
  9 34  1  0
  9 35  1  0
 11 36  1  0
 11 37  1  0
 12 38  1  0
 13 39  1  0
 13 40  1  0
 16 41  1  0
 16 42  1  0
 18 43  1  0
 18 44  1  0
 19 45  1  0
 19 46  1  0
 19 47  1  0
 20 48  1  0
 20 49  1  0
 20 50  1  0
 23 51  1  0
M  END
> <Name>
RB2013_10b

> <Clean Energy>
301.287

$$$$
RB2013_11S
  SciTegic12132405553D

 58 61  0  0  0  0            999 V2000
  -63.8011   29.1942    0.1727 C   0  0
  -65.0747   28.1063    0.0247 C   0  0
  -64.5921   26.4980   -0.1596 C   0  0
  -63.4212   26.3174    0.6864 C   0  0  1  0  0  0
  -62.2769   27.3141   -0.0492 C   0  0  2  0  0  0
  -62.7032   28.6837   -0.6659 C   0  0  2  0  0  0
  -61.3914   26.6634   -1.3060 C   0  0
  -60.3546   27.7206   -2.1224 C   0  0
  -59.8054   28.6574   -1.1538 C   0  0  2  0  0  0
  -61.2500   29.5744   -0.6630 C   0  0  2  0  0  0
  -59.7093   31.0065    0.6052 C   0  0
  -60.8922   30.1273    0.7273 C   0  0
  -58.7863   29.7301   -1.5238 C   0  0
  -58.5042   30.3356   -0.0616 C   0  0  2  0  0  0
  -57.9651   29.0314    0.4635 C   0  0  2  0  0  0
  -58.9993   27.9049    0.0699 C   0  0  2  0  0  0
  -57.4136   28.9103    1.8880 C   0  0
  -57.1426   28.9138   -0.2496 H   0  0
  -58.0984   26.8291   -0.2120 O   0  0
  -57.7089   31.0923   -0.0726 H   0  0
  -63.7583   26.6405    2.2214 C   0  0
  -62.8559   24.9335    0.7223 C   0  0
  -62.2618   24.5351    1.7303 O   0  0
  -63.0081   24.0946   -0.3780 O   0  0
  -62.3901   22.8367   -0.1106 C   0  0
  -61.6081   27.4812    0.7803 H   0  0
  -61.4957   30.4051   -1.3370 H   0  0
  -63.3888   28.7271   -2.2292 C   0  0
  -59.7491   27.6050    0.7833 H   0  0
  -64.1348   30.2118   -0.0683 H   0  0
  -63.4131   29.1752    1.1939 H   0  0
  -65.6833   28.2551    0.9276 H   0  0
  -65.7042   28.3170   -0.8508 H   0  0
  -65.4333   25.8377    0.0878 H   0  0
  -64.2560   26.2883   -1.1811 H   0  0
  -62.0440   26.2490   -2.0862 H   0  0
  -60.8232   25.8412   -0.8506 H   0  0
  -59.5932   27.1271   -2.6447 H   0  0
  -60.8656   28.3415   -2.8431 H   0  0
  -59.9814   31.8733   -0.0117 H   0  0
  -59.4318   31.3493    1.6108 H   0  0
  -60.7009   29.3091    1.4224 H   0  0
  -61.7169   30.7294    1.1250 H   0  0
  -59.1832   30.4513   -2.2504 H   0  0
  -57.8682   29.2767   -1.9179 H   0  0
  -56.9803   27.9102    2.0273 H   0  0
  -58.2306   29.0606    2.6081 H   0  0
  -56.6389   29.6733    2.0455 H   0  0
  -58.5970   26.0535   -0.5633 H   0  0
  -62.8396   26.5236    2.8117 H   0  0
  -64.5101   25.9227    2.5760 H   0  0
  -64.1340   27.6468    2.3793 H   0  0
  -62.5116   22.1764   -0.9809 H   0  0
  -62.8629   22.3762    0.7688 H   0  0
  -61.3192   22.9913    0.0864 H   0  0
  -63.6273   29.7735   -2.4605 H   0  0
  -64.2909   28.1409   -2.3344 H   0  0
  -62.7126   28.3691   -2.9812 H   0  0
  1  2  1  0
  2  3  1  0
  3  4  1  0
  4  5  1  0
  5  6  1  0
  1  6  1  0
  7  8  1  0
  8  9  1  0
  9 10  1  0
  5  7  1  0
  6 10  1  0
 11 12  1  0
 13 14  1  0
 11 14  1  0
  9 13  1  0
 12 10  1  0
 14 15  1  0
  9 16  1  0
 16 15  1  0
  4 22  1  0
 22 23  2  0
 22 24  1  0
 24 25  1  0
  5 26  1  0
 16 19  1  0
 15 17  1  0
 15 18  1  0
  6 28  1  0
  4 21  1  0
 16 29  1  0
 14 20  1  0
 10 27  1  0
  1 30  1  0
  1 31  1  0
  2 32  1  0
  2 33  1  0
  3 34  1  0
  3 35  1  0
  7 36  1  0
  7 37  1  0
  8 38  1  0
  8 39  1  0
 11 40  1  0
 11 41  1  0
 12 42  1  0
 12 43  1  0
 13 44  1  0
 13 45  1  0
 17 46  1  0
 17 47  1  0
 17 48  1  0
 19 49  1  0
 21 50  1  0
 21 51  1  0
 21 52  1  0
 25 53  1  0
 25 54  1  0
 25 55  1  0
 28 56  1  0
 28 57  1  0
 28 58  1  0
M  END
> <Name>
RB2013_11S

> <Clean Energy>
252.28

$$$$
RB2013_12S
  SciTegic12132405553D

 58 61  0  0  0  0            999 V2000
  -63.5902   29.0780    0.2712 C   0  0
  -64.8534   28.3813   -0.5897 C   0  0
  -64.5787   26.8052   -1.1115 C   0  0
  -63.8671   26.1475   -0.0546 C   0  0  1  0  0  0
  -62.3651   26.9162    0.0822 C   0  0  2  0  0  0
  -62.3367   28.5852   -0.3133 C   0  0  2  0  0  0
  -61.1577   26.2995   -0.7298 C   0  0
  -59.8226   26.8349   -0.0534 C   0  0
  -59.4889   28.3424   -0.0985 C   0  0  2  0  0  0
  -60.9590   29.1312    0.4176 C   0  0  1  0  0  0
  -59.7333   30.9807    0.8849 C   0  0
  -60.9598   30.7733    0.3206 C   0  0
  -59.1484   29.0951   -1.2333 C   0  0
  -58.7815   30.4858   -0.3198 C   0  0  2  0  0  0
  -57.5980   29.9531    0.2190 C   0  0  2  0  0  0
  -58.1381   28.6145    0.7978 C   0  0
  -56.6464   30.7424    1.1328 C   0  0
  -57.0483   29.6989   -0.6941 H   0  0
  -58.6065   31.3251   -1.0049 H   0  0
  -64.7169   26.1762    1.3092 C   0  0
  -63.6299   24.6868   -0.2504 C   0  0
  -63.9248   24.1558   -1.3269 O   0  0
  -63.0703   23.9312    0.7756 O   0  0
  -62.9324   22.5749    0.3527 C   0  0
  -62.1370   26.6863    1.1313 H   0  0
  -62.3981   29.0359   -1.9312 C   0  0
  -56.2122   31.9176    0.4502 O   0  0
  -61.0617   28.8196    1.4659 H   0  0
  -63.7104   30.1682    0.2573 H   0  0
  -63.5710   28.7277    1.3097 H   0  0
  -65.7246   28.4473    0.0771 H   0  0
  -65.0844   28.9451   -1.5044 H   0  0
  -65.5415   26.3399   -1.3597 H   0  0
  -63.9194   26.7625   -1.9844 H   0  0
  -61.2318   26.4846   -1.8079 H   0  0
  -61.1367   25.2200   -0.5506 H   0  0
  -59.9306   26.5625    1.0051 H   0  0
  -58.9597   26.3028   -0.4746 H   0  0
  -59.4536   32.0037    1.1695 H   0  0
  -59.7610   30.3474    1.7828 H   0  0
  -61.8042   31.1716    0.8966 H   0  0
  -60.9621   31.1851   -0.6987 H   0  0
  -59.9352   29.1776   -1.8742 H   0  0
  -58.2652   28.7654   -1.7940 H   0  0
  -58.4866   28.5724    1.8398 H   0  0
  -57.2883   27.9386    0.6393 H   0  0
  -57.1644   31.0257    2.0593 H   0  0
  -55.7777   30.1166    1.3787 H   0  0
  -64.1364   25.6654    2.0889 H   0  0
  -65.6594   25.6356    1.1486 H   0  0
  -64.9432   27.1774    1.6634 H   0  0
  -62.4902   21.9812    1.1652 H   0  0
  -62.2787   22.5331   -0.5306 H   0  0
  -63.9218   22.1690    0.0974 H   0  0
  -62.3924   30.1299   -1.9998 H   0  0
  -63.2573   28.6741   -2.4696 H   0  0
  -61.5404   28.6430   -2.4525 H   0  0
  -55.7474   31.6591   -0.3840 H   0  0
  1  2  1  0
  2  3  1  0
  3  4  1  0
  4  5  1  0
  5  6  1  0
  1  6  1  0
  7  8  1  0
  8  9  1  0
  9 10  1  0
  5  7  1  0
  6 10  1  0
 11 12  1  0
 13 14  1  0
 11 14  1  0
  9 13  1  0
 14 15  1  0
  9 16  1  0
 16 15  1  0
  4 21  1  0
 21 22  2  0
 21 23  1  0
 23 24  1  0
  5 25  1  0
 15 17  1  0
 15 18  1  0
  6 26  1  0
  4 20  1  0
 17 27  1  0
 12 10  1  0
 14 19  1  0
 10 28  1  0
  1 29  1  0
  1 30  1  0
  2 31  1  0
  2 32  1  0
  3 33  1  0
  3 34  1  0
  7 35  1  0
  7 36  1  0
  8 37  1  0
  8 38  1  0
 11 39  1  0
 11 40  1  0
 12 41  1  0
 12 42  1  0
 13 43  1  0
 13 44  1  0
 16 45  1  0
 16 46  1  0
 17 47  1  0
 17 48  1  0
 20 49  1  0
 20 50  1  0
 20 51  1  0
 24 52  1  0
 24 53  1  0
 24 54  1  0
 26 55  1  0
 26 56  1  0
 26 57  1  0
 27 58  1  0
M  END
> <Name>
RB2013_12S

> <Clean Energy>
243.178

$$$$
RB2013_13S
  SciTegic12132405553D

 56 59  0  0  0  0            999 V2000
  -63.5345   28.9255    0.9204 C   0  0
  -64.9406   28.3043    0.2397 C   0  0
  -64.7776   26.8515   -0.5792 C   0  0
  -63.8481   26.0723    0.1715 C   0  0  1  0  0  0
  -62.3673   26.8749    0.0914 C   0  0  2  0  0  0
  -62.4401   28.5772    0.0114 C   0  0  2  0  0  0
  -61.3768   26.4927   -1.0870 C   0  0
  -60.0528   26.9982   -0.4853 C   0  0
  -59.7822   28.5085   -0.2528 C   0  0  2  0  0  0
  -61.0384   29.2284    0.2091 C   0  0
  -59.9051   31.3362   -0.1076 C   0  0
  -61.0456   30.5443    0.3384 C   0  0
  -59.0043   29.3780   -1.4206 C   0  0
  -58.6103   30.6085   -0.5019 C   0  0  2  0  0  0
  -58.0436   29.9710    0.7574 C   0  0  1  0  0  0
  -58.5777   28.5430    0.6450 C   0  0
  -56.5289   29.7035    0.8677 C   0  0
  -58.3672   30.6104    1.5903 H   0  0
  -57.9802   31.4199   -0.8900 H   0  0
  -64.3674   25.8447    1.6757 C   0  0
  -63.6414   24.6770   -0.3155 C   0  0
  -64.1500   24.3175   -1.3832 O   0  0
  -62.8680   23.7911    0.4277 O   0  0
  -62.8055   22.5315   -0.2405 C   0  0
  -61.9013   26.4708    0.9970 H   0  0
  -62.8038   29.2556   -1.4728 C   0  0
  -55.8077   30.9418    0.8681 O   0  0
  -63.6798   30.0025    1.0730 H   0  0
  -63.2783   28.4497    1.8749 H   0  0
  -65.6519   28.2273    1.0741 H   0  0
  -65.3648   28.9936   -0.5038 H   0  0
  -65.7677   26.3894   -0.6856 H   0  0
  -64.3280   26.9771   -1.5689 H   0  0
  -61.6512   26.8714   -2.0767 H   0  0
  -61.2813   25.4020   -1.1270 H   0  0
  -60.1115   26.5539    0.5134 H   0  0
  -59.1727   26.5804   -0.9913 H   0  0
  -60.2733   31.8269   -1.0183 H   0  0
  -59.6977   32.1332    0.6185 H   0  0
  -61.9506   31.0549    0.5255 H   0  0
  -59.5981   29.6126   -2.3144 H   0  0
  -58.0880   28.8480   -1.7121 H   0  0
  -58.6128   28.0201    1.6090 H   0  0
  -57.8779   28.0128   -0.0109 H   0  0
  -56.1992   29.0923    0.0158 H   0  0
  -56.3264   29.1653    1.8038 H   0  0
  -63.6202   25.2447    2.2118 H   0  0
  -65.3161   25.2924    1.6410 H   0  0
  -64.5181   26.7648    2.2324 H   0  0
  -62.1938   21.8341    0.3490 H   0  0
  -62.3531   22.6677   -1.2336 H   0  0
  -63.8212   22.1257   -0.3518 H   0  0
  -62.8577   30.3462   -1.3839 H   0  0
  -63.7369   28.9160   -1.8973 H   0  0
  -62.0096   29.0010   -2.1846 H   0  0
  -55.9672   31.4272    0.0226 H   0  0
  1  2  1  0
  2  3  1  0
  4  3  1  0
  5  4  1  0
  6  5  1  0
  6  1  1  0
  7  8  1  0
  8  9  1  0
 10  9  1  0
  5  7  1  0
 10  6  1  0
 11 12  1  0
 13 14  1  0
 11 14  1  0
  9 13  1  0
 14 15  1  0
  9 16  1  0
 16 15  1  0
  4 21  1  0
 21 22  2  0
 21 23  1  0
 23 24  1  0
  5 25  1  0
  6 26  1  0
  4 20  1  0
 17 27  1  0
 15 18  1  0
 15 17  1  0
 10 12  2  0
 14 19  1  0
  1 28  1  0
  1 29  1  0
  2 30  1  0
  2 31  1  0
  3 32  1  0
  3 33  1  0
  7 34  1  0
  7 35  1  0
  8 36  1  0
  8 37  1  0
 11 38  1  0
 11 39  1  0
 12 40  1  0
 13 41  1  0
 13 42  1  0
 16 43  1  0
 16 44  1  0
 17 45  1  0
 17 46  1  0
 20 47  1  0
 20 48  1  0
 20 49  1  0
 24 50  1  0
 24 51  1  0
 24 52  1  0
 26 53  1  0
 26 54  1  0
 26 55  1  0
 27 56  1  0
M  END
> <Name>
RB2013_13S

> <Clean Energy>
253.132

$$$$
RB2013_14
  SciTegic12132405553D

 59 62  0  0  0  0            999 V2000
  -63.6047   28.9881    0.2794 C   0  0
  -64.8292   28.2850   -0.6314 C   0  0
  -64.5282   26.7090   -1.1393 C   0  0
  -63.8550   26.0567   -0.0547 C   0  0  1  0  0  0
  -62.3622   26.8329    0.1402 C   0  0  2  0  0  0
  -62.3267   28.5026   -0.2526 C   0  0  2  0  0  0
  -61.1227   26.2238   -0.6247 C   0  0
  -59.8224   26.7632    0.1070 C   0  0
  -59.4896   28.2722    0.0864 C   0  0  2  0  0  0
  -60.9819   29.0593    0.5418 C   0  0  1  0  0  0
  -59.7754   30.8964    1.1143 C   0  0
  -60.9775   30.7181    0.4882 C   0  0  1  0  0  0
  -59.1009   29.0338   -1.0197 C   0  0
  -58.7696   30.4133   -0.0648 C   0  0  2  0  0  0
  -57.6134   29.8713    0.5132 C   0  0  2  0  0  0
  -58.1809   28.5300    1.0465 C   0  0
  -56.7002   30.6441    1.4787 C   0  0
  -57.0259   29.6294   -0.3795 H   0  0
  -58.5603   31.2634   -0.7278 H   0  0
  -64.7580   26.0830    1.2746 C   0  0
  -63.6038   24.5968   -0.2387 C   0  0
  -63.8598   24.0616   -1.3230 O   0  0
  -63.0750   23.8469    0.8076 O   0  0
  -62.9159   22.4903    0.3933 C   0  0
  -62.1750   26.6030    1.1975 H   0  0
  -62.3231   28.9414   -1.8751 C   0  0
  -56.2350   31.8283    0.8331 O   0  0
  -60.9328   31.3789   -0.7860 O   0  0
  -61.8487   31.0842    1.0452 H   0  0
  -61.1148   28.7350    1.5829 H   0  0
  -63.7284   30.0781    0.2591 H   0  0
  -63.6259   28.6393    1.3183 H   0  0
  -65.7268   28.3483   -0.0002 H   0  0
  -65.0253   28.8468   -1.5553 H   0  0
  -65.4785   26.2390   -1.4241 H   0  0
  -63.8352   26.6675   -1.9855 H   0  0
  -61.1539   26.4105   -1.7043 H   0  0
  -61.1033   25.1440   -0.4470 H   0  0
  -59.9749   26.4856    1.1586 H   0  0
  -58.9404   26.2357   -0.2787 H   0  0
  -59.4935   31.9131    1.4182 H   0  0
  -59.8521   30.2550    2.0041 H   0  0
  -59.8635   29.1270   -1.6941 H   0  0
  -58.1943   28.7106   -1.5459 H   0  0
  -58.5761   28.4750    2.0712 H   0  0
  -57.3264   27.8536    0.9182 H   0  0
  -55.8440   30.0124    1.7518 H   0  0
  -57.2565   30.9148    2.3865 H   0  0
  -64.2062   25.5760    2.0772 H   0  0
  -65.6908   25.5376    1.0778 H   0  0
  -65.0030   27.0834    1.6182 H   0  0
  -62.4982   21.9009    1.2218 H   0  0
  -62.2328   22.4496   -0.4675 H   0  0
  -63.8941   22.0784    0.1061 H   0  0
  -62.3266   30.0311   -1.9526 H   0  0
  -63.1548   28.5674   -2.4468 H   0  0
  -61.4372   28.5535   -2.3555 H   0  0
  -55.7357   31.5813    0.0156 H   0  0
  -60.8610   32.3572   -0.6491 H   0  0
  1  2  1  0
  2  3  1  0
  4  3  1  0
  5  4  1  0
  6  5  1  0
  6  1  1  0
  7  8  1  0
  8  9  1  0
 10  9  1  0
  5  7  1  0
 10  6  1  0
 11 12  1  0
 13 14  1  0
 11 14  1  0
  9 13  1  0
 14 15  1  0
  9 16  1  0
 16 15  1  0
  4 21  1  0
 21 22  2  0
 21 23  1  0
 23 24  1  0
  5 25  1  0
  6 26  1  0
  4 20  1  0
 17 27  1  0
 10 12  1  0
 12 28  1  0
 12 29  1  0
 15 17  1  0
 15 18  1  0
 10 30  1  0
 14 19  1  0
  1 31  1  0
  1 32  1  0
  2 33  1  0
  2 34  1  0
  3 35  1  0
  3 36  1  0
  7 37  1  0
  7 38  1  0
  8 39  1  0
  8 40  1  0
 11 41  1  0
 11 42  1  0
 13 43  1  0
 13 44  1  0
 16 45  1  0
 16 46  1  0
 17 47  1  0
 17 48  1  0
 20 49  1  0
 20 50  1  0
 20 51  1  0
 24 52  1  0
 24 53  1  0
 24 54  1  0
 26 55  1  0
 26 56  1  0
 26 57  1  0
 27 58  1  0
 28 59  1  0
M  END
> <Name>
RB2013_14

> <Clean Energy>
245.413

$$$$
RB2013_15
  SciTegic12132405553D

 59 62  0  0  0  0            999 V2000
  -63.6046   28.9880    0.2795 C   0  0
  -64.8292   28.2849   -0.6312 C   0  0
  -64.5281   26.7090   -1.1393 C   0  0
  -63.8550   26.0566   -0.0548 C   0  0  1  0  0  0
  -62.3621   26.8328    0.1401 C   0  0  2  0  0  0
  -62.3266   28.5026   -0.2526 C   0  0  2  0  0  0
  -61.1226   26.2237   -0.6249 C   0  0
  -59.8223   26.7631    0.1067 C   0  0
  -59.4895   28.2721    0.0862 C   0  0  2  0  0  0
  -60.9818   29.0592    0.5418 C   0  0  1  0  0  0
  -59.7752   30.8962    1.1143 C   0  0
  -60.9774   30.7180    0.4882 C   0  0  1  0  0  0
  -59.1008   29.0338   -1.0198 C   0  0
  -58.7695   30.4133   -0.0649 C   0  0  2  0  0  0
  -57.6133   29.8712    0.5130 C   0  0  2  0  0  0
  -58.1807   28.5299    1.0463 C   0  0
  -56.7000   30.6440    1.4785 C   0  0
  -57.0258   29.6293   -0.3797 H   0  0
  -58.5602   31.2633   -0.7278 H   0  0
  -64.7579   26.0828    1.2746 C   0  0
  -63.6037   24.5967   -0.2388 C   0  0
  -63.8597   24.0616   -1.3232 O   0  0
  -63.0749   23.8468    0.8073 O   0  0
  -62.9158   22.4901    0.3930 C   0  0
  -62.1749   26.6028    1.1974 H   0  0
  -62.3231   28.9414   -1.8751 C   0  0
  -56.2349   31.8282    0.8330 O   0  0
  -60.9328   31.3789   -0.7860 O   0  0
  -61.8486   31.0840    1.0453 H   0  0
  -61.1146   28.7348    1.5829 H   0  0
  -63.7283   30.0780    0.2592 H   0  0
  -63.6257   28.6391    1.3183 H   0  0
  -65.7267   28.3482    0.0000 H   0  0
  -65.0253   28.8469   -1.5552 H   0  0
  -65.4785   26.2390   -1.4240 H   0  0
  -63.8353   26.6675   -1.9856 H   0  0
  -61.1539   26.4105   -1.7045 H   0  0
  -61.1033   25.1439   -0.4473 H   0  0
  -59.9748   26.4854    1.1584 H   0  0
  -58.9403   26.2357   -0.2790 H   0  0
  -59.4934   31.9129    1.4183 H   0  0
  -59.8519   30.2548    2.0040 H   0  0
  -59.8635   29.1270   -1.6942 H   0  0
  -58.1943   28.7107   -1.5461 H   0  0
  -58.5759   28.4748    2.0710 H   0  0
  -57.3262   27.8535    0.9179 H   0  0
  -55.8438   30.0122    1.7515 H   0  0
  -57.2563   30.9146    2.3863 H   0  0
  -64.2060   25.5758    2.0771 H   0  0
  -65.6907   25.5375    1.0778 H   0  0
  -65.0028   27.0832    1.6183 H   0  0
  -62.4980   21.9008    1.2214 H   0  0
  -62.2327   22.4496   -0.4678 H   0  0
  -63.8940   22.0783    0.1058 H   0  0
  -62.3266   30.0312   -1.9525 H   0  0
  -63.1548   28.5675   -2.4468 H   0  0
  -61.4373   28.5536   -2.3556 H   0  0
  -55.7356   31.5812    0.0154 H   0  0
  -60.8610   32.3572   -0.6490 H   0  0
  1  2  1  0
  2  3  1  0
  4  3  1  0
  5  4  1  0
  6  5  1  0
  6  1  1  0
  7  8  1  0
  8  9  1  0
 10  9  1  0
  5  7  1  0
 10  6  1  0
 11 12  1  0
 14 13  1  0
 14 11  1  0
  9 13  1  0
 14 15  1  0
  9 16  1  0
 15 16  1  0
  4 21  1  0
 21 22  2  0
 21 23  1  0
 23 24  1  0
  5 25  1  0
  6 26  1  0
  4 20  1  0
 17 27  1  0
 10 12  1  0
 12 28  1  0
 12 29  1  0
 15 17  1  0
 15 18  1  0
 10 30  1  0
 14 19  1  0
  1 31  1  0
  1 32  1  0
  2 33  1  0
  2 34  1  0
  3 35  1  0
  3 36  1  0
  7 37  1  0
  7 38  1  0
  8 39  1  0
  8 40  1  0
 11 41  1  0
 11 42  1  0
 13 43  1  0
 13 44  1  0
 16 45  1  0
 16 46  1  0
 17 47  1  0
 17 48  1  0
 20 49  1  0
 20 50  1  0
 20 51  1  0
 24 52  1  0
 24 53  1  0
 24 54  1  0
 26 55  1  0
 26 56  1  0
 26 57  1  0
 27 58  1  0
 28 59  1  0
M  END
> <Name>
RB2013_15

> <Clean Energy>
245.413

$$$$
RB2013_16
  SciTegic12132405553D

 53 56  0  0  0  0            999 V2000
    0.3449   -2.6962    0.0450 C   0  0
   -0.8238   -3.8168   -0.2829 C   0  0
   -0.2946   -5.3842   -0.3531 C   0  0
    0.7536   -5.5359    0.6785 C   0  0  1  0  0  0
    1.9209   -4.5161    0.0723 C   0  0  2  0  0  0
    1.5060   -3.2464   -0.5798 C   0  0  2  0  0  0
    2.8733   -2.3102   -0.6115 C   0  0  2  0  0  0
    2.7773   -5.0984   -1.2416 C   0  0
    3.6993   -3.9913   -2.0768 C   0  0
    4.2559   -3.1159   -1.0752 C   0  0  1  0  0  0
    4.4594   -0.7937    0.4570 C   0  0
    3.2348   -1.6696    0.6740 C   0  0
    5.4104   -2.1105   -1.4873 C   0  0
    5.7346   -1.5464   -0.1055 C   0  0  2  0  0  0
    0.2022   -5.2079    2.1429 C   0  0
    1.3448   -6.9071    0.7929 C   0  0
    1.4079   -7.7339   -0.3260 O   0  0
    1.7597   -7.3094    1.8855 O   0  0
    2.0002   -8.9816    0.0321 C   0  0
    1.1647   -3.5048   -1.5972 H   0  0
    5.9869   -2.8078    0.8050 C   0  0  1  0  0  0
    5.1716   -3.8892   -0.0704 C   0  0
    5.6910   -2.5307    1.8269 H   0  0
    7.3344   -3.4603    0.7882 C   0  0
    7.9616   -3.6056    1.8427 O   0  0
    7.7532   -3.7919   -0.1283 H   0  0
    2.6035   -1.5347   -1.3393 H   0  0
    2.5767   -4.3276    0.9258 H   0  0
    6.5350   -0.7967   -0.0507 H   0  0
    0.0218   -1.7190   -0.3369 H   0  0
    0.5855   -2.6201    1.1120 H   0  0
   -1.5900   -3.6708    0.4916 H   0  0
   -1.2778   -3.6396   -1.2668 H   0  0
   -1.1502   -6.0601   -0.2258 H   0  0
    0.1769   -5.5933   -1.3139 H   0  0
    2.0978   -5.4848   -2.0104 H   0  0
    3.3812   -5.9308   -0.8545 H   0  0
    4.4502   -4.5421   -2.6577 H   0  0
    3.1090   -3.3509   -2.7514 H   0  0
    4.2153    0.0271   -0.2310 H   0  0
    4.7144   -0.3778    1.4404 H   0  0
    3.4405   -2.4346    1.4278 H   0  0
    2.4056   -1.0474    1.0320 H   0  0
    5.0913   -1.3579   -2.2202 H   0  0
    6.2788   -2.6611   -1.8729 H   0  0
    1.0335   -5.2874    2.8562 H   0  0
   -0.5703   -5.9440    2.4030 H   0  0
   -0.2220   -4.2103    2.2240 H   0  0
    2.0484   -9.6314   -0.8531 H   0  0
    1.3924   -9.4653    0.8103 H   0  0
    3.0161   -8.8065    0.4149 H   0  0
    4.8215   -4.7594    0.4997 H   0  0
    5.8982   -4.2411   -0.8121 H   0  0
  1  2  1  0
  1  6  1  0
  2  3  1  0
  4  3  1  0
  4  5  1  0
  5  6  1  0
  8  9  1  0
  9 10  1  0
  7 10  1  0
  5  8  1  0
  7  6  1  0
 11 12  1  0
 13 14  1  0
 11 14  1  0
 12  7  1  0
 10 13  1  0
 16 17  1  0
 16 18  2  0
 17 19  1  0
  4 16  1  0
  4 15  1  0
  6 20  1  0
 14 21  1  0
 10 22  1  0
 22 21  1  0
 24 25  2  0
 24 26  1  0
 21 24  1  0
 21 23  1  0
  7 27  1  0
  5 28  1  0
 14 29  1  0
  1 30  1  0
  1 31  1  0
  2 32  1  0
  2 33  1  0
  3 34  1  0
  3 35  1  0
  8 36  1  0
  8 37  1  0
  9 38  1  0
  9 39  1  0
 11 40  1  0
 11 41  1  0
 12 42  1  0
 12 43  1  0
 13 44  1  0
 13 45  1  0
 15 46  1  0
 15 47  1  0
 15 48  1  0
 19 49  1  0
 19 50  1  0
 19 51  1  0
 22 52  1  0
 22 53  1  0
M  END
> <Name>
RB2013_16

> <Clean Energy>
232.049

$$$$
RB2013_17
  SciTegic12132405553D

 56 59  0  0  0  0            999 V2000
    1.7761   -2.5840    0.2590 C   0  0
    0.5811   -3.3496   -0.6400 C   0  0
    0.9546   -4.9118   -1.1414 C   0  0
    1.6626   -5.5266   -0.0564 C   0  0  1  0  0  0
    3.1173   -4.6806    0.1263 C   0  0  2  0  0  0
    3.0729   -3.0141   -0.2787 C   0  0  2  0  0  0
    4.3941   -2.3932    0.4949 C   0  0  1  0  0  0
    4.3822   -5.2372   -0.6410 C   0  0
    5.6636   -4.6301    0.0770 C   0  0
    5.9189   -3.1072    0.0353 C   0  0  1  0  0  0
    5.5070   -0.4749    0.9833 C   0  0
    4.3116   -0.7524    0.3828 C   0  0
    6.2610   -2.3449   -1.0944 C   0  0
    6.5205   -0.9283   -0.1825 C   0  0  2  0  0  0
    7.2265   -2.7649    0.9773 C   0  0
    7.6863   -1.3930    0.4253 C   0  0  2  0  0  0
    3.0445   -2.5757   -1.9009 C   0  0
    8.5490   -0.5432    1.3022 C   0  0
    8.7740    0.6323    0.9939 O   0  0
    8.9633   -0.9488    2.1897 H   0  0
    8.2665   -1.5969   -0.4813 H   0  0
    0.7660   -5.5352    1.2773 C   0  0
    1.9815   -6.9740   -0.2343 C   0  0
    1.7508   -7.5250   -1.3163 O   0  0
    2.5447   -7.6941    0.8149 O   0  0
    2.7668   -9.0436    0.4062 C   0  0
    6.6836   -0.0879   -0.8691 H   0  0
    4.2719   -2.7034    1.5416 H   0  0
    3.3209   -4.8936    1.1841 H   0  0
    1.6004   -1.5015    0.2335 H   0  0
    1.7774   -2.9275    1.2999 H   0  0
   -0.3148   -3.3255   -0.0038 H   0  0
    0.3531   -2.8030   -1.5658 H   0  0
    0.0263   -5.4277   -1.4191 H   0  0
    1.6449   -4.9247   -1.9910 H   0  0
    4.3353   -5.0607   -1.7220 H   0  0
    4.4531   -6.3134   -0.4549 H   0  0
    5.5336   -4.9038    1.1327 H   0  0
    6.5672   -5.1178   -0.3113 H   0  0
    5.7242    0.5632    1.2671 H   0  0
    5.4842   -1.1024    1.8852 H   0  0
    3.4290   -0.3943    0.9271 H   0  0
    4.3213   -0.3494   -0.6399 H   0  0
    5.4959   -2.3072   -1.7664 H   0  0
    7.1807   -2.6349   -1.6178 H   0  0
    6.8507   -2.8373    2.0081 H   0  0
    8.1200   -3.3867    0.8384 H   0  0
    3.9389   -2.9261   -2.3895 H   0  0
    2.9959   -1.4833   -1.9772 H   0  0
    2.2245   -2.9846   -2.4659 H   0  0
    1.3449   -6.0114    2.0797 H   0  0
   -0.1413   -6.1247    1.0883 H   0  0
    0.4763   -4.5454    1.6169 H   0  0
    3.2116   -9.6094    1.2369 H   0  0
    3.4510   -9.0559   -0.4546 H   0  0
    1.8089   -9.5017    0.1209 H   0  0
  1  2  1  0
  1  6  1  0
  2  3  1  0
  3  4  1  0
  4  5  1  0
  5  6  1  0
  8  9  1  0
  9 10  1  0
  7 10  1  0
  5  8  1  0
 11 12  1  0
 13 14  1  0
 11 14  1  0
 12  7  1  0
 10 13  1  0
 10 15  1  0
 14 16  1  0
 16 15  1  0
  6 17  1  0
 18 19  2  0
 18 20  1  0
 16 18  1  0
 16 21  1  0
  4 22  1  0
  4 23  1  0
 23 24  2  0
 23 25  1  0
 25 26  1  0
  5 29  1  0
  7  6  1  0
 14 27  1  0
  7 28  1  0
  1 30  1  0
  1 31  1  0
  2 32  1  0
  2 33  1  0
  3 34  1  0
  3 35  1  0
  8 36  1  0
  8 37  1  0
  9 38  1  0
  9 39  1  0
 11 40  1  0
 11 41  1  0
 12 42  1  0
 12 43  1  0
 13 44  1  0
 13 45  1  0
 15 46  1  0
 15 47  1  0
 17 48  1  0
 17 49  1  0
 17 50  1  0
 22 51  1  0
 22 52  1  0
 22 53  1  0
 26 54  1  0
 26 55  1  0
 26 56  1  0
M  END
> <Name>
RB2013_17

> <Clean Energy>
255.97

$$$$
RB2013_18
  SciTegic12132405553D

 53 56  0  0  0  0            999 V2000
    2.0913   -2.4925    0.5677 C   0  0
    0.9381   -3.1983   -0.4518 C   0  0
    1.2730   -4.7171   -1.1166 C   0  0
    2.0222   -5.3986   -0.0510 C   0  0  1  0  0  0
    3.4450   -4.5973    0.1990 C   0  0  2  0  0  0
    3.3882   -2.9532    0.0113 C   0  0  2  0  0  0
    4.7227   -2.3761    0.7015 C   0  0  1  0  0  0
    4.6272   -5.0044   -0.7279 C   0  0
    5.9421   -4.4974   -0.0345 C   0  0
    6.0949   -2.9575    0.0615 C   0  0  1  0  0  0
    5.8467   -0.0773    0.5534 C   0  0
    4.5930   -0.8544    0.4708 C   0  0
    6.4484   -2.1345   -1.1923 C   0  0
    6.8978   -0.7447   -0.4001 C   0  0  2  0  0  0
    7.4413   -2.6980    0.8580 C   0  0
    7.7561   -1.3100    0.5935 C   0  0
    3.3115   -2.4312   -1.5148 C   0  0
    1.0853   -5.3995    1.2257 C   0  0
    2.3434   -6.8445   -0.3034 C   0  0
    2.6067   -7.2244   -1.4549 O   0  0
    2.3256   -7.7622    0.7393 O   0  0
    2.6488   -9.0647    0.2396 C   0  0
    7.4052    0.0214   -1.0019 H   0  0
    4.7027   -2.6922    1.7531 H   0  0
    3.6994   -4.9372    1.2121 H   0  0
    8.7393   -0.7256    1.0611 O   0  0
    2.0211   -1.4052    0.5385 H   0  0
    1.9650   -2.8378    1.5939 H   0  0
    0.0165   -3.2943    0.1223 H   0  0
    0.7792   -2.5111   -1.2827 H   0  0
    0.3524   -5.2523   -1.3493 H   0  0
    1.8772   -4.6230   -2.0189 H   0  0
    4.5148   -4.5374   -1.7064 H   0  0
    4.6576   -6.0879   -0.8433 H   0  0
    5.9647   -4.9008    0.9778 H   0  0
    6.7901   -4.8843   -0.5995 H   0  0
    5.6651    0.9510    0.2408 H   0  0
    6.2196   -0.0857    1.5777 H   0  0
    3.9068   -0.4609    1.2207 H   0  0
    4.1717   -0.7027   -0.5230 H   0  0
    5.5903   -1.9825   -1.8470 H   0  0
    7.2676   -2.5733   -1.7620 H   0  0
    7.2955   -2.8633    1.9255 H   0  0
    8.2359   -3.3494    0.4942 H   0  0
    4.2233   -2.7121   -2.0417 H   0  0
    3.2071   -1.3462   -1.5234 H   0  0
    2.4522   -2.8824   -2.0109 H   0  0
    1.5953   -5.8961    2.0510 H   0  0
    0.1609   -5.9306    0.9982 H   0  0
    0.8537   -4.3724    1.5077 H   0  0
    2.6342   -9.7829    1.0594 H   0  0
    3.6421   -9.0462   -0.2088 H   0  0
    1.9164   -9.3579   -0.5127 H   0  0
  1  2  1  0
  1  6  1  0
  2  3  1  0
  3  4  1  0
  4  5  1  0
  5  6  1  0
  8  9  1  0
  9 10  1  0
  7 10  1  0
  5  8  1  0
 11 12  1  0
 13 14  1  0
 11 14  1  0
 12  7  1  0
 10 13  1  0
 10 15  1  0
 14 16  1  0
 16 15  1  0
  6 17  1  0
  4 18  1  0
  4 19  1  0
 19 20  2  0
 19 21  1  0
 21 22  1  0
  5 25  1  0
  7  6  1  0
 14 23  1  0
  7 24  1  0
 16 26  2  0
  1 27  1  0
  1 28  1  0
  2 29  1  0
  2 30  1  0
  3 31  1  0
  3 32  1  0
  8 33  1  0
  8 34  1  0
  9 35  1  0
  9 36  1  0
 11 37  1  0
 11 38  1  0
 12 39  1  0
 12 40  1  0
 13 41  1  0
 13 42  1  0
 15 43  1  0
 15 44  1  0
 17 45  1  0
 17 46  1  0
 17 47  1  0
 18 48  1  0
 18 49  1  0
 18 50  1  0
 22 51  1  0
 22 52  1  0
 22 53  1  0
M  END
> <Name>
RB2013_18

> <Clean Energy>
156.281

$$$$
RB2013_19
  SciTegic12132405553D

 55 58  0  0  0  0            999 V2000
    2.0173   -2.4545    0.3002 C   0  0
    0.8353   -3.1843   -0.6447 C   0  0
    1.2095   -4.7333   -1.1860 C   0  0
    1.8919   -5.3852   -0.1065 C   0  0  1  0  0  0
    3.3474   -4.5545    0.1315 C   0  0  2  0  0  0
    3.3221   -2.8774   -0.2247 C   0  0  2  0  0  0
    4.6330   -2.2915    0.5964 C   0  0  1  0  0  0
    4.6254   -5.0958   -0.6234 C   0  0
    5.8940   -4.5187    0.1430 C   0  0
    6.1645   -2.9964    0.1535 C   0  0  1  0  0  0
    5.7462   -0.4282    1.1708 C   0  0
    4.5674   -0.6596    0.5351 C   0  0
    6.5250   -2.2173   -0.9539 C   0  0
    6.8097   -0.8360    0.0141 C   0  0  2  0  0  0
    7.4688   -2.6900    1.1756 C   0  0
    7.9976   -1.2654    0.7433 C   0  0  1  0  0  0
    3.3266   -2.3889   -1.8340 C   0  0
    0.9687   -5.4284    1.2081 C   0  0
    2.2058   -6.8286   -0.3218 C   0  0
    1.9924   -7.3455   -1.4241 O   0  0
    2.7445   -7.5835    0.7157 O   0  0
    2.9664   -8.9215    0.2709 C   0  0
    6.9775    0.0444   -0.6196 H   0  0
    4.4841   -2.6346    1.6294 H   0  0
    3.5274   -4.8001    1.1865 H   0  0
    9.1222   -1.4264   -0.2259 O   0  0
    1.8492   -1.3704    0.3044 H   0  0
    1.9957   -2.8295    1.3300 H   0  0
   -0.0727   -3.1735   -0.0256 H   0  0
    0.6288   -2.6085   -1.5577 H   0  0
    0.2837   -5.2344   -1.4976 H   0  0
    1.9164   -4.7249   -2.0218 H   0  0
    4.6045   -4.8871   -1.6995 H   0  0
    4.6856   -6.1775   -0.4677 H   0  0
    5.7364   -4.8225    1.1866 H   0  0
    6.8028   -5.0025   -0.2381 H   0  0
    5.9620    0.5958    1.5020 H   0  0
    5.6910   -1.0848    2.0501 H   0  0
    3.6765   -0.3114    1.0720 H   0  0
    4.6066   -0.2198   -0.4718 H   0  0
    5.7690   -2.1460   -1.6288 H   0  0
    7.4160   -2.5139   -1.4744 H   0  0
    7.0241   -2.8056    2.1751 H   0  0
    8.3586   -3.3230    1.0634 H   0  0
    8.3954   -0.6131    1.5324 H   0  0
    4.2275   -2.7307   -2.3172 H   0  0
    3.2868   -1.2943   -1.8771 H   0  0
    2.5146   -2.7740   -2.4266 H   0  0
    1.5285   -5.9324    2.0071 H   0  0
    0.0619   -6.0059    0.9833 H   0  0
    0.6780   -4.4475    1.5719 H   0  0
    3.3919   -9.5148    1.0926 H   0  0
    3.6669   -8.9125   -0.5768 H   0  0
    2.0114   -9.3647   -0.0461 H   0  0
    9.0072   -2.0483   -0.9434 H   0  0
  1  2  1  0
  6  1  1  0
  2  3  1  0
  4  3  1  0
  5  4  1  0
  6  5  1  0
  8  9  1  0
  9 10  1  0
  7 10  1  0
  5  8  1  0
 11 12  1  0
 14 13  1  0
 14 11  1  0
  7 12  1  0
 10 13  1  0
 10 15  1  0
 14 16  1  0
 16 15  1  0
  6 17  1  0
  4 18  1  0
  4 19  1  0
 19 20  2  0
 19 21  1  0
 21 22  1  0
  5 25  1  0
  7  6  1  0
  7 24  1  0
 14 23  1  0
 16 26  1  0
  1 27  1  0
  1 28  1  0
  2 29  1  0
  2 30  1  0
  3 31  1  0
  3 32  1  0
  8 33  1  0
  8 34  1  0
  9 35  1  0
  9 36  1  0
 11 37  1  0
 11 38  1  0
 12 39  1  0
 12 40  1  0
 13 41  1  0
 13 42  1  0
 15 43  1  0
 15 44  1  0
 16 45  1  0
 17 46  1  0
 17 47  1  0
 17 48  1  0
 18 49  1  0
 18 50  1  0
 18 51  1  0
 22 52  1  0
 22 53  1  0
 22 54  1  0
 26 55  1  0
M  END
> <Name>
RB2013_19

> <Clean Energy>
257.527

$$$$
RB2013_20
  SciTegic12132405553D

 57 60  0  0  0  0            999 V2000
    1.9354   -2.5158    0.4239 C   0  0
    0.6232   -3.2142   -0.3588 C   0  0
    0.8776   -4.7790   -0.9229 C   0  0
    1.6675   -5.4442    0.0721 C   0  0  1  0  0  0
    3.1673   -4.6606    0.1169 C   0  0  2  0  0  0
    3.1508   -2.9856   -0.2530 C   0  0  2  0  0  0
    4.5695   -2.4341    0.3895 C   0  0  1  0  0  0
    4.3220   -5.2507   -0.7870 C   0  0
    5.6948   -4.7102   -0.1959 C   0  0
    6.0076   -3.1982   -0.2382 C   0  0  1  0  0  0
    5.8059   -0.5725    0.7922 C   0  0
    4.5444   -0.7894    0.3146 C   0  0
    6.2629   -2.4262   -1.3844 C   0  0
    6.6737   -1.0408   -0.4805 C   0  0  2  0  0  0
    7.4180   -2.9276    0.5686 C   0  0
    7.8753   -1.5643   -0.0056 C   0  0  2  0  0  0
    2.9735   -2.5120   -1.8557 C   0  0
    0.9137   -5.4456    1.4914 C   0  0
    1.9058   -6.8990   -0.1625 C   0  0
    1.5422   -7.4174   -1.2240 O   0  0
    2.5435   -7.6631    0.8101 O   0  0
    2.6659   -9.0113    0.3577 C   0  0
    6.8001   -0.1929   -1.1655 H   0  0
    4.5431   -2.7614    1.4377 H   0  0
    3.4699   -4.9039    1.1440 H   0  0
    8.8556   -0.7686    0.7919 C   0  0
    8.3496   -1.7700   -0.9715 H   0  0
    9.1167    0.3950    0.4679 O   0  0
    9.4684   -1.3377    1.9001 O   0  0
    1.8033   -1.4269    0.4352 H   0  0
    2.0298   -2.8810    1.4530 H   0  0
   -0.2005   -3.1680    0.3673 H   0  0
    0.3238   -2.6395   -1.2465 H   0  0
   -0.0951   -5.2517   -1.1113 H   0  0
    1.4754   -4.8013   -1.8397 H   0  0
    4.1713   -5.0496   -1.8541 H   0  0
    4.3669   -6.3326   -0.6275 H   0  0
    5.6631   -5.0007    0.8629 H   0  0
    6.5324   -5.2251   -0.6841 H   0  0
    6.0944    0.4499    1.0695 H   0  0
    5.8502   -1.2175    1.6808 H   0  0
    3.7384   -0.4082    0.9537 H   0  0
    4.4653   -0.3654   -0.6966 H   0  0
    5.4347   -2.3441   -1.9725 H   0  0
    7.1107   -2.7413   -2.0054 H   0  0
    7.1476   -3.0061    1.6315 H   0  0
    8.2661   -3.5812    0.3280 H   0  0
    3.7972   -2.8873   -2.4406 H   0  0
    2.9628   -1.4173   -1.9080 H   0  0
    2.0832   -2.8760   -2.3393 H   0  0
    1.5520   -5.9612    2.2211 H   0  0
   -0.0319   -5.9944    1.3878 H   0  0
    0.7021   -4.4524    1.8760 H   0  0
    3.1699   -9.6119    1.1281 H   0  0
    3.2568   -9.0325   -0.5695 H   0  0
    1.6655   -9.4249    0.1655 H   0  0
   10.0812   -0.6795    2.3109 H   0  0
  1  2  1  0
  6  1  1  0
  2  3  1  0
  4  3  1  0
  5  4  1  0
  6  5  1  0
  8  9  1  0
  9 10  1  0
  7 10  1  0
  5  8  1  0
 11 12  1  0
 14 13  1  0
 14 11  1  0
  7 12  1  0
 10 13  1  0
 10 15  1  0
 14 16  1  0
 16 15  1  0
  6 17  1  0
  4 18  1  0
  4 19  1  0
 19 20  2  0
 19 21  1  0
 21 22  1  0
  5 25  1  0
  7  6  1  0
  7 24  1  0
 14 23  1  0
 26 28  2  0
 26 29  1  0
 16 26  1  0
 16 27  1  0
  1 30  1  0
  1 31  1  0
  2 32  1  0
  2 33  1  0
  3 34  1  0
  3 35  1  0
  8 36  1  0
  8 37  1  0
  9 38  1  0
  9 39  1  0
 11 40  1  0
 11 41  1  0
 12 42  1  0
 12 43  1  0
 13 44  1  0
 13 45  1  0
 15 46  1  0
 15 47  1  0
 17 48  1  0
 17 49  1  0
 17 50  1  0
 18 51  1  0
 18 52  1  0
 18 53  1  0
 22 54  1  0
 22 55  1  0
 22 56  1  0
 29 57  1  0
M  END
> <Name>
RB2013_20

> <Clean Energy>
255.51

$$$$
RB2013_21
  SciTegic12132405553D

 68 72  0  0  0  0            999 V2000
    1.6897   -2.6581    0.5497 C   0  0
    0.3292   -3.3343   -0.1671 C   0  0
    0.5377   -4.8924   -0.7675 C   0  0
    1.3769   -5.5786    0.1712 C   0  0  1  0  0  0
    2.8834   -4.8073    0.1422 C   0  0  2  0  0  0
    2.8605   -3.1269   -0.2022 C   0  0  2  0  0  0
    4.3184   -2.5969    0.3667 C   0  0  1  0  0  0
    3.9801   -5.3934   -0.8332 C   0  0
    5.3890   -4.8723   -0.3132 C   0  0
    5.7128   -3.3627   -0.3537 C   0  0  1  0  0  0
    5.5918   -0.7565    0.7331 C   0  0
    4.3042   -0.9526    0.3210 C   0  0
    5.9078   -2.5754   -1.4975 C   0  0
    6.3846   -1.2110   -0.5958 C   0  0  2  0  0  0
    7.1628   -3.1110    0.3733 C   0  0
    7.6280   -1.7490   -0.2266 C   0  0  2  0  0  0
    2.5962   -2.6274   -1.7851 C   0  0
    0.7048   -5.5954    1.6309 C   0  0
    1.5890   -7.0316   -0.0977 C   0  0
    1.1619   -7.5309   -1.1446 O   0  0
    2.2733   -7.8153    0.8264 O   0  0
    2.3583   -9.1575    0.3481 C   0  0
    6.4699   -0.3512   -1.2725 H   0  0
    4.3485   -2.9406    1.4095 H   0  0
    3.2415   -5.0678    1.1470 H   0  0
    8.6826   -0.9608    0.5782 C   0  0
    8.0597   -1.9725   -1.2082 H   0  0
    9.9731    1.0778    0.5697 C   0  0
    8.9893    0.2757   -0.1644 N   0  0
    9.9147   -1.7736    0.7450 N   0  0
   10.9191   -1.0108    1.4974 C   0  0
   11.2582    0.2670    0.7296 C   0  0
    1.5679   -1.5685    0.5845 H   0  0
    1.8394   -3.0397    1.5663 H   0  0
   -0.4515   -3.2927    0.6054 H   0  0
   -0.0152   -2.7440   -1.0278 H   0  0
   -0.4482   -5.3545   -0.9072 H   0  0
    1.0823   -4.9055   -1.7170 H   0  0
    3.7713   -5.1760   -1.8873 H   0  0
    4.0244   -6.4777   -0.6912 H   0  0
    5.4148   -5.1771    0.7416 H   0  0
    6.1929   -5.3873   -0.8551 H   0  0
    5.9046    0.2591    1.0106 H   0  0
    5.6782   -1.4160    1.6080 H   0  0
    3.5385   -0.5757    1.0101 H   0  0
    4.1738   -0.5103   -0.6770 H   0  0
    5.0469   -2.4779   -2.0319 H   0  0
    6.7144   -2.8836   -2.1741 H   0  0
    6.9474   -3.1861    1.4488 H   0  0
    7.9877   -3.7772    0.0904 H   0  0
    3.3821   -3.0002   -2.4217 H   0  0
    2.5923   -1.5319   -1.8201 H   0  0
    1.6766   -2.9768   -2.2224 H   0  0
    1.3789   -6.1269    2.3156 H   0  0
   -0.2499   -6.1353    1.5732 H   0  0
    0.5238   -4.6065    2.0414 H   0  0
    2.8993   -9.7736    1.0801 H   0  0
    2.8963   -9.1692   -0.6110 H   0  0
    1.3451   -9.5601    0.2062 H   0  0
    8.2833   -0.7032    1.5682 H   0  0
   10.1873    2.0005    0.0132 H   0  0
    9.5717    1.3294    1.5613 H   0  0
    9.3635    0.0342   -1.0921 H   0  0
    9.6999   -2.6336    1.2613 H   0  0
   10.5132   -0.7488    2.4843 H   0  0
   11.8269   -1.6173    1.6210 H   0  0
   12.0030    0.8521    1.2869 H   0  0
   11.6573    0.0080   -0.2616 H   0  0
  1  2  1  0
  6  1  1  0
  2  3  1  0
  4  3  1  0
  5  4  1  0
  6  5  1  0
  8  9  1  0
  9 10  1  0
  7 10  1  0
  5  8  1  0
 11 12  1  0
 14 13  1  0
 14 11  1  0
  7 12  1  0
 10 13  1  0
 10 15  1  0
 16 15  1  0
  6 17  1  0
  4 18  1  0
  4 19  1  0
 19 20  2  0
 19 21  1  0
 21 22  1  0
  5 25  1  0
  7  6  1  0
 16 27  1  0
 28 29  1  0
 30 31  1  0
 31 32  1  0
 28 32  1  0
 29 26  1  0
 26 30  1  0
 16 26  1  0
 16 14  1  0
  7 24  1  0
 14 23  1  0
  1 33  1  0
  1 34  1  0
  2 35  1  0
  2 36  1  0
  3 37  1  0
  3 38  1  0
  8 39  1  0
  8 40  1  0
  9 41  1  0
  9 42  1  0
 11 43  1  0
 11 44  1  0
 12 45  1  0
 12 46  1  0
 13 47  1  0
 13 48  1  0
 15 49  1  0
 15 50  1  0
 17 51  1  0
 17 52  1  0
 17 53  1  0
 18 54  1  0
 18 55  1  0
 18 56  1  0
 22 57  1  0
 22 58  1  0
 22 59  1  0
 26 60  1  0
 28 61  1  0
 28 62  1  0
 29 63  1  0
 30 64  1  0
 31 65  1  0
 31 66  1  0
 32 67  1  0
 32 68  1  0
M  END
> <Name>
RB2013_21

> <Clean Energy>
239.212

$$$$
RB2013_22
  SciTegic12132405553D

 56 59  0  0  0  0            999 V2000
    1.8087   -2.3346    0.2499 C   0  0
    0.5568   -3.4422    0.0747 C   0  0
    1.0701   -5.0397   -0.1230 C   0  0
    2.2369   -5.2112    0.7323 C   0  0  1  0  0  0
    3.3729   -4.1860    0.0229 C   0  0  2  0  0  0
    2.9237   -2.8200   -0.5786 C   0  0  2  0  0  0
    4.3493   -1.9238   -0.5492 C   0  0  2  0  0  0
    4.2770   -4.8010   -1.2508 C   0  0
    5.3212   -3.7091   -2.0193 C   0  0
    5.7983   -2.8230   -0.9812 C   0  0  1  0  0  0
    5.9397   -0.4528    0.7288 C   0  0
    4.6845   -1.3296    0.8216 C   0  0
    6.8848   -1.8270   -1.2686 C   0  0
    7.1315   -1.2512    0.1692 C   0  0  2  0  0  0
    6.6458   -3.6487    0.1654 C   0  0  2  0  0  0
    7.2493   -2.5108    0.9548 C   0  0
    2.2623   -2.7718   -2.1513 C   0  0
    1.8792   -4.9134    2.2673 C   0  0
    2.8245   -6.5856    0.7552 C   0  0
    3.4164   -6.9875    1.7631 O   0  0
    2.6962   -7.4120   -0.3575 O   0  0
    3.3325   -8.6632   -0.1012 C   0  0
    8.0133   -0.5989    0.2176 H   0  0
    4.1240   -1.0996   -1.2379 H   0  0
    4.0423   -4.0212    0.8644 H   0  0
    7.8038   -2.6216    2.1589 C   0  0
    7.7654   -4.3364   -0.4170 O   0  0
    1.4616   -1.3200    0.0151 H   0  0
    2.1850   -2.3580    1.2757 H   0  0
   -0.0644   -3.3148    0.9722 H   0  0
   -0.0661   -3.2322   -0.8058 H   0  0
    0.2382   -5.7176    0.1081 H   0  0
    1.4195   -5.2313   -1.1434 H   0  0
    3.6390   -5.2036   -2.0489 H   0  0
    4.8473   -5.6291   -0.8088 H   0  0
    6.1097   -4.2758   -2.5308 H   0  0
    4.8280   -3.0618   -2.7352 H   0  0
    5.7580    0.4100    0.0740 H   0  0
    6.1751   -0.1007    1.7420 H   0  0
    4.8342   -2.1392    1.5415 H   0  0
    3.8545   -0.7061    1.1740 H   0  0
    6.6241   -1.0684   -2.0183 H   0  0
    7.7776   -2.3754   -1.5923 H   0  0
    6.0905   -4.3818    0.7597 H   0  0
    2.9577   -3.1092   -2.8975 H   0  0
    2.0090   -1.7273   -2.3750 H   0  0
    1.3719   -3.3726   -2.2763 H   0  0
    2.7938   -5.0225    2.8654 H   0  0
    1.1359   -5.6479    2.6052 H   0  0
    1.4853   -3.9154    2.4335 H   0  0
    3.2297   -9.3135   -0.9814 H   0  0
    2.8594   -9.1432    0.7676 H   0  0
    4.3988   -8.4937    0.1078 H   0  0
    7.8424   -3.5662    2.6383 H   0  0
    8.2058   -1.7651    2.6377 H   0  0
    7.4551   -5.0746   -0.9942 H   0  0
  1  2  1  0
  6  1  1  0
  2  3  1  0
  4  3  1  0
  5  4  1  0
  6  5  1  0
  8  9  1  0
  9 10  1  0
  7 10  1  0
  5  8  1  0
 11 12  1  0
 14 13  1  0
 14 11  1  0
  7 12  1  0
 10 13  1  0
 10 15  1  0
 16 15  1  0
  6 17  1  0
  4 18  1  0
  4 19  1  0
 19 20  2  0
 19 21  1  0
 21 22  1  0
  5 25  1  0
  7  6  1  0
 14 16  1  0
  7 24  1  0
 14 23  1  0
 16 26  2  0
 15 27  1  0
  1 28  1  0
  1 29  1  0
  2 30  1  0
  2 31  1  0
  3 32  1  0
  3 33  1  0
  8 34  1  0
  8 35  1  0
  9 36  1  0
  9 37  1  0
 11 38  1  0
 11 39  1  0
 12 40  1  0
 12 41  1  0
 13 42  1  0
 13 43  1  0
 15 44  1  0
 17 45  1  0
 17 46  1  0
 17 47  1  0
 18 48  1  0
 18 49  1  0
 18 50  1  0
 22 51  1  0
 22 52  1  0
 22 53  1  0
 26 54  1  0
 26 55  1  0
 27 56  1  0
M  END
> <Name>
RB2013_22

> <Clean Energy>
216.686

$$$$
RB2013_23
  SciTegic12132405553D

 56 59  0  0  0  0            999 V2000
    1.7768   -2.3841    0.3679 C   0  0
    0.5328   -3.5066    0.2408 C   0  0
    1.0543   -5.0903   -0.0330 C   0  0
    2.2750   -5.2675    0.7426 C   0  0  1  0  0  0
    3.3504   -4.2068   -0.0081 C   0  0  2  0  0  0
    2.8409   -2.8283   -0.5429 C   0  0  2  0  0  0
    4.2448   -1.9134   -0.5787 C   0  0  2  0  0  0
    4.1816   -4.7752   -1.3464 C   0  0
    5.1609   -3.6543   -2.1496 C   0  0
    5.6540   -2.7720   -1.1201 C   0  0  1  0  0  0
    5.9523   -0.5057    0.6635 C   0  0
    4.6944   -1.3789    0.7993 C   0  0
    6.7166   -1.7493   -1.4355 C   0  0
    7.0995   -1.2746   -0.0386 C   0  0  2  0  0  0
    6.4728   -3.5099   -0.0177 C   0  0
    7.2903   -2.6302    0.5851 C   0  0
    2.0862   -2.7507   -2.0687 C   0  0
    2.0110   -5.0158    2.3044 C   0  0
    2.8801   -6.6337    0.6909 C   0  0
    3.5391   -7.0539    1.6484 O   0  0
    2.6914   -7.4323   -0.4335 O   0  0
    3.3575   -8.6810   -0.2518 C   0  0
    7.9943   -0.6381   -0.0355 H   0  0
    3.9678   -1.0667   -1.2197 H   0  0
    4.0702   -4.0562    0.7945 H   0  0
    8.2451   -2.9493    1.6846 C   0  0
    9.5372   -2.4625    1.3252 O   0  0
    1.4006   -1.3693    0.1844 H   0  0
    2.2192   -2.4292    1.3662 H   0  0
   -0.0324   -3.4133    1.1787 H   0  0
   -0.1474   -3.2828   -0.5927 H   0  0
    0.2478   -5.7866    0.2309 H   0  0
    1.3412   -5.2492   -1.0783 H   0  0
    3.5043   -5.1735   -2.1140 H   0  0
    4.7923   -5.5993   -0.9551 H   0  0
    5.9399   -4.2005   -2.6968 H   0  0
    4.6240   -3.0100   -2.8389 H   0  0
    5.7317    0.3970    0.0782 H   0  0
    6.2657   -0.2183    1.6761 H   0  0
    4.8986   -2.2205    1.4662 H   0  0
    3.8963   -0.7745    1.2469 H   0  0
    6.4070   -0.9670   -2.1410 H   0  0
    7.5869   -2.2862   -1.8360 H   0  0
    6.4126   -4.5405    0.2202 H   0  0
    2.7414   -3.0564   -2.8636 H   0  0
    1.8034   -1.7053   -2.2487 H   0  0
    1.1993   -3.3637   -2.1557 H   0  0
    2.9627   -5.1275    2.8409 H   0  0
    1.2999   -5.7698    2.6680 H   0  0
    1.6156   -4.0285    2.5223 H   0  0
    3.2069   -9.3093   -1.1411 H   0  0
    2.9460   -9.1901    0.6317 H   0  0
    4.4328   -8.5028   -0.1059 H   0  0
    7.9403   -2.3985    2.5856 H   0  0
    8.2632   -4.0301    1.8819 H   0  0
    9.8376   -2.9113    0.4960 H   0  0
  1  2  1  0
  6  1  1  0
  2  3  1  0
  4  3  1  0
  5  4  1  0
  6  5  1  0
  8  9  1  0
  9 10  1  0
  7 10  1  0
  5  8  1  0
 11 12  1  0
 14 13  1  0
 14 11  1  0
  7 12  1  0
 10 13  1  0
 10 15  1  0
  6 17  1  0
  4 18  1  0
  4 19  1  0
 19 20  2  0
 19 21  1  0
 21 22  1  0
  5 25  1  0
  7  6  1  0
 14 16  1  0
 14 23  1  0
 16 15  2  0
 16 26  1  0
 26 27  1  0
  7 24  1  0
  1 28  1  0
  1 29  1  0
  2 30  1  0
  2 31  1  0
  3 32  1  0
  3 33  1  0
  8 34  1  0
  8 35  1  0
  9 36  1  0
  9 37  1  0
 11 38  1  0
 11 39  1  0
 12 40  1  0
 12 41  1  0
 13 42  1  0
 13 43  1  0
 15 44  1  0
 17 45  1  0
 17 46  1  0
 17 47  1  0
 18 48  1  0
 18 49  1  0
 18 50  1  0
 22 51  1  0
 22 52  1  0
 22 53  1  0
 26 54  1  0
 26 55  1  0
 27 56  1  0
M  END
> <Name>
RB2013_23

> <Clean Energy>
226.509

$$$$
RB2013_24
  SciTegic12132405553D

 59 62  0  0  0  0            999 V2000
    1.9640   -2.4452    0.4511 C   0  0
    0.6445   -3.0868   -0.3672 C   0  0
    0.8630   -4.6451   -0.9637 C   0  0
    1.6175   -5.3553    0.0273 C   0  0  1  0  0  0
    3.1382   -4.6165    0.1143 C   0  0  2  0  0  0
    3.1765   -2.9347   -0.2180 C   0  0  2  0  0  0
    4.6030   -2.4419    0.4636 C   0  0  1  0  0  0
    4.2908   -5.2190   -0.7815 C   0  0
    5.6684   -4.7335   -0.1522 C   0  0
    6.0341   -3.2314   -0.1527 C   0  0  1  0  0  0
    5.8739   -0.6500    0.9441 C   0  0
    4.6260   -0.8054    0.4311 C   0  0
    6.3103   -2.4457   -1.2718 C   0  0
    6.7907   -1.0972   -0.3172 C   0  0  2  0  0  0
    7.4578   -3.0263    0.7329 C   0  0
    8.0352   -1.6339    0.2522 C   0  0  2  0  0  0
    3.0353   -2.4184   -1.8130 C   0  0
    0.8412   -5.3675    1.4344 C   0  0
    1.8177   -6.8108   -0.2373 C   0  0
    1.4552   -7.2943   -1.3154 O   0  0
    2.4187   -7.6147    0.7266 O   0  0
    2.5092   -8.9553    0.2451 C   0  0
    6.9452   -0.2205   -0.9589 H   0  0
    4.5444   -2.7954    1.5021 H   0  0
    3.4160   -4.8912    1.1404 H   0  0
    8.9037   -0.8309    1.2599 C   0  0
   10.0640   -1.5894    1.6296 O   0  0
    9.0072   -1.8520   -0.8683 O   0  0
    1.8632   -1.3534    0.4862 H   0  0
    2.0314   -2.8368    1.4727 H   0  0
   -0.1888   -3.0334    0.3475 H   0  0
    0.3755   -2.4835   -1.2456 H   0  0
   -0.1198   -5.0850   -1.1779 H   0  0
    1.4744   -4.6636   -1.8716 H   0  0
    4.1661   -4.9899   -1.8464 H   0  0
    4.3010   -6.3050   -0.6458 H   0  0
    5.6072   -5.0469    0.8987 H   0  0
    6.4980   -5.2643   -0.6369 H   0  0
    6.1773    0.3548    1.2673 H   0  0
    5.8714   -1.3221    1.8133 H   0  0
    3.8176   -0.4184    1.0634 H   0  0
    4.5842   -0.3495   -0.5685 H   0  0
    5.4905   -2.3125   -1.8539 H   0  0
    7.1096   -2.7825   -1.8957 H   0  0
    7.0744   -3.1093    1.7601 H   0  0
    8.3005   -3.7101    0.5689 H   0  0
    3.8570   -2.8038   -2.3959 H   0  0
    3.0573   -1.3226   -1.8387 H   0  0
    2.1420   -2.7444   -2.3175 H   0  0
    1.4526   -5.9179    2.1616 H   0  0
   -0.1180   -5.8862    1.3034 H   0  0
    0.6518   -4.3777    1.8389 H   0  0
    2.9843   -9.5874    1.0086 H   0  0
    3.1131   -8.9727   -0.6738 H   0  0
    1.5004   -9.3354    0.0293 H   0  0
    8.3245   -0.6002    2.1635 H   0  0
    9.2255    0.1059    0.7843 H   0  0
    9.7964   -2.4255    2.0809 H   0  0
    8.7656   -2.4388   -1.5774 H   0  0
  1  2  1  0
  6  1  1  0
  2  3  1  0
  4  3  1  0
  5  4  1  0
  6  5  1  0
  8  9  1  0
  9 10  1  0
  7 10  1  0
  5  8  1  0
 11 12  1  0
 14 13  1  0
 14 11  1  0
  7 12  1  0
 10 13  1  0
 10 15  1  0
  6 17  1  0
  4 18  1  0
  4 19  1  0
 19 20  2  0
 19 21  1  0
 21 22  1  0
  5 25  1  0
  7  6  1  0
 14 16  1  0
 14 23  1  0
 26 27  1  0
  7 24  1  0
 16 28  1  0
 16 15  1  0
 16 26  1  0
  1 29  1  0
  1 30  1  0
  2 31  1  0
  2 32  1  0
  3 33  1  0
  3 34  1  0
  8 35  1  0
  8 36  1  0
  9 37  1  0
  9 38  1  0
 11 39  1  0
 11 40  1  0
 12 41  1  0
 12 42  1  0
 13 43  1  0
 13 44  1  0
 15 45  1  0
 15 46  1  0
 17 47  1  0
 17 48  1  0
 17 49  1  0
 18 50  1  0
 18 51  1  0
 18 52  1  0
 22 53  1  0
 22 54  1  0
 22 55  1  0
 26 56  1  0
 26 57  1  0
 27 58  1  0
 28 59  1  0
M  END
> <Name>
RB2013_24

> <Clean Energy>
258.628

$$$$
RB2010_2
  SciTegic12132405553D

 50 53  0  0  0  0            999 V2000
   -6.2326    0.8085    0.9109 C   0  0
   -7.6409    0.2143    0.2117 C   0  0
   -7.4916   -1.2308   -0.6227 C   0  0
   -6.5726   -2.0344    0.1210 C   0  0  2  0  0  0
   -5.0787   -1.2452    0.0648 C   0  0  2  0  0  0
   -5.1330    0.4609    0.0060 C   0  0  2  0  0  0
   -3.7245    1.0941    0.2232 C   0  0
   -4.0830   -1.6339   -1.1092 C   0  0
   -2.7519   -1.1617   -0.4948 C   0  0
   -2.5787    3.2563    0.0105 C   0  0
   -3.7323    2.4244    0.4133 C   0  0
   -1.7887    1.2081   -1.3612 C   0  0
   -1.3888    2.4489   -0.4245 C   0  0  2  0  0  0
   -2.4541    0.3368   -0.2606 C   0  0  1  0  0  0
   -1.2318    0.3675    0.7117 C   0  0
   -0.8626    1.7609    0.7399 C   0  0
   -0.1411    2.3318    1.7000 C   0  0
   -6.4002   -3.4480   -0.3851 C   0  0
   -7.1281   -2.2663    1.6172 C   0  0
   -5.4686   -4.3310    0.1915 O   0  0
   -7.0984   -3.8376   -1.3270 O   0  0
   -5.4776    1.1614   -1.4681 C   0  0
   -4.6257   -1.6653    0.9698 H   0  0
   -6.3680    1.8844    1.0771 H   0  0
   -5.9900    0.3169    1.8611 H   0  0
   -8.3597    0.1375    1.0397 H   0  0
   -8.0505    0.9180   -0.5265 H   0  0
   -8.4874   -1.6784   -0.7388 H   0  0
   -7.0363   -1.0982   -1.6092 H   0  0
   -4.3426   -1.2428   -2.0986 H   0  0
   -4.0089   -2.7255   -1.1558 H   0  0
   -2.8254   -1.6092    0.5018 H   0  0
   -1.8782   -1.5939   -0.9996 H   0  0
   -2.9422    3.8005   -0.8713 H   0  0
   -2.3244    4.0077    0.7700 H   0  0
   -4.6387    2.9235    0.6176 H   0  0
   -2.3922    1.4465   -2.2476 H   0  0
   -0.8698    0.6885   -1.6640 H   0  0
   -0.6725    3.1587   -0.8588 H   0  0
   -1.4204   -0.0681    1.7015 H   0  0
   -0.4006   -0.1767    0.2442 H   0  0
    0.2037    1.7522    2.5178 H   0  0
    0.0885    3.3659    1.6468 H   0  0
   -6.4035   -2.8876    2.1598 H   0  0
   -8.0869   -2.7989    1.5583 H   0  0
   -7.2706   -1.3507    2.1830 H   0  0
   -4.9758   -3.8982    0.9298 H   0  0
   -5.5172    2.2511   -1.3627 H   0  0
   -6.4115    0.8394   -1.9041 H   0  0
   -4.6822    0.9066   -2.1774 H   0  0
  1  2  1  0
  2  3  1  0
  3  4  1  0
  4  5  1  0
  5  6  1  0
  1  6  1  0
  8  9  1  0
  5  8  1  0
  7  6  1  0
 10 11  1  0
 12 13  1  0
 10 13  1  0
 11  7  2  0
 14 15  1  0
 15 16  1  0
 13 16  1  0
 16 17  2  0
  4 19  1  0
  4 18  1  0
 18 20  1  0
 18 21  2  0
  6 22  1  0
  9 14  1  0
  7 14  1  0
 14 12  1  0
  5 23  1  0
  1 24  1  0
  1 25  1  0
  2 26  1  0
  2 27  1  0
  3 28  1  0
  3 29  1  0
  8 30  1  0
  8 31  1  0
  9 32  1  0
  9 33  1  0
 10 34  1  0
 10 35  1  0
 11 36  1  0
 12 37  1  0
 12 38  1  0
 13 39  1  0
 15 40  1  0
 15 41  1  0
 17 42  1  0
 17 43  1  0
 19 44  1  0
 19 45  1  0
 19 46  1  0
 20 47  1  0
 22 48  1  0
 22 49  1  0
 22 50  1  0
M  END
> <Name>
RB2010_2

> <Clean Energy>
219.542

$$$$
RB2010_6
  SciTegic12132405553D

 55 58  0  0  0  0            999 V2000
  -11.2498    5.6153    1.1205 C   0  0
  -10.5950    6.6930    0.7720 C   0  0
  -11.1976    5.6462   -1.1842 C   0  0
  -12.1373    8.0854   -0.5563 C   0  0
  -13.4008    7.2705   -0.6255 C   0  0
  -13.5180    6.0104    0.2473 C   0  0  2  0  0  0
  -12.1408    5.0965    0.0445 C   0  0  2  0  0  0
  -10.8882    7.1301   -0.5967 C   0  0  1  0  0  0
   -9.6398    7.4005    1.6737 C   0  0
  -14.7591    5.1452   -0.0997 C   0  0  1  0  0  0
  -14.8000    3.9822    0.9164 C   0  0  2  0  0  0
  -13.3504    3.3780    1.3813 C   0  0
  -12.4081    3.4449    0.2289 C   0  0
  -16.1831    5.8836    0.2157 C   0  0
  -17.4751    4.8812    0.5731 C   0  0
  -17.3368    3.6896   -0.2470 C   0  0
  -15.9890    2.9064    0.3527 C   0  0  2  0  0  0
  -14.6428    4.7415   -1.7472 C   0  0
  -16.2782    2.0994    1.6476 C   0  0
  -15.5758    1.8808   -0.6839 C   0  0
  -14.5083    1.0267   -0.4367 O   0  0
  -16.2040    1.7964   -1.7452 O   0  0
  -13.6389    6.2156    1.3210 H   0  0
  -15.1710    4.4300    1.8491 H   0  0
  -14.3192    0.1610   -1.5537 C   0  0
  -11.1510    5.1606    2.0713 H   0  0
  -10.2589    5.0782   -1.1411 H   0  0
  -11.6179    5.5900   -2.1994 H   0  0
  -12.2144    8.6503   -1.4946 H   0  0
  -12.0290    8.7842    0.2840 H   0  0
  -14.2763    7.9205   -0.5048 H   0  0
  -13.3858    6.9347   -1.6518 H   0  0
  -10.0428    7.6934   -1.0142 H   0  0
   -9.0772    8.1657    1.1205 H   0  0
   -8.9734    6.6650    2.1451 H   0  0
  -10.2154    7.8699    2.4835 H   0  0
  -12.8881    4.0431    2.1040 H   0  0
  -13.4889    2.4014    1.8573 H   0  0
  -11.4417    2.9497    0.3883 H   0  0
  -12.9152    2.9843   -0.6192 H   0  0
  -16.3598    6.6073   -0.5911 H   0  0
  -16.1064    6.4259    1.1675 H   0  0
  -17.4401    4.5426    1.6135 H   0  0
  -18.4067    5.4391    0.4099 H   0  0
  -18.1845    2.9921   -0.2703 H   0  0
  -17.1843    4.0939   -1.2431 H   0  0
  -14.6662    5.6515   -2.3510 H   0  0
  -15.4642    4.1269   -2.0693 H   0  0
  -13.7262    4.2070   -1.9679 H   0  0
  -15.3733    1.5787    1.9771 H   0  0
  -17.0632    1.3599    1.4406 H   0  0
  -16.6161    2.7801    2.4402 H   0  0
  -13.4738   -0.5127   -1.3555 H   0  0
  -14.1068    0.7632   -2.4491 H   0  0
  -15.2310   -0.4312   -1.7165 H   0  0
  1  2  2  0
  4  5  1  0
  5  6  1  0
  6  7  1  0
  4  8  1  0
  7  3  1  0
  3  8  1  0
  8  2  1  0
  7  1  1  0
  2  9  1  0
 10 11  1  0
 11 12  1  0
 12 13  1  0
  6 10  1  0
 13  7  1  0
 14 15  1  0
 15 16  1  0
 16 17  1  0
 14 10  1  0
 17 11  1  0
 10 18  1  0
 17 19  1  0
 17 20  1  0
 20 21  1  0
 20 22  2  0
  6 23  1  0
 11 24  1  0
 21 25  1  0
  1 26  1  0
  3 27  1  0
  3 28  1  0
  4 29  1  0
  4 30  1  0
  5 31  1  0
  5 32  1  0
  8 33  1  0
  9 34  1  0
  9 35  1  0
  9 36  1  0
 12 37  1  0
 12 38  1  0
 13 39  1  0
 13 40  1  0
 14 41  1  0
 14 42  1  0
 15 43  1  0
 15 44  1  0
 16 45  1  0
 16 46  1  0
 18 47  1  0
 18 48  1  0
 18 49  1  0
 19 50  1  0
 19 51  1  0
 19 52  1  0
 25 53  1  0
 25 54  1  0
 25 55  1  0
M  END
> <Name>
RB2010_6

> <Clean Energy>
269.769

$$$$
RB2007b_1
  SciTegic12132405553D

 52 55  0  0  0  0            999 V2000
   12.4632  -16.9057    0.0222 C   0  0  1  0  0  0
   12.4692  -18.1983    0.8647 C   0  0  1  0  0  0
   11.1131  -16.1705    0.5797 C   0  0
   11.1764  -19.1598    0.3150 C   0  0  2  0  0  0
    9.8217  -17.1642    0.9503 C   0  0
    9.8105  -18.2494   -0.0168 C   0  0
   15.1059  -17.0400   -0.0970 C   0  0  2  0  0  0
   14.7746  -18.6861   -0.1295 C   0  0
   13.7754  -16.1125    0.3540 C   0  0  1  0  0  0
   13.9169  -18.9151    1.0893 C   0  0
   16.2935  -14.9238   -0.5362 C   0  0  1  0  0  0
   15.9618  -16.3507   -1.3017 C   0  0
   15.0835  -13.9629   -0.3371 C   0  0
   13.8273  -14.7600   -0.3828 C   0  0
   12.3871  -17.0956   -1.6597 C   0  0
   10.9303  -20.1055    1.5250 C   0  0
   11.3770  -20.0884   -0.9088 C   0  0
   16.2281  -16.8013    0.9603 C   0  0
   16.6151  -15.4511    0.7930 C   0  0
   17.2248  -14.7498    1.7431 C   0  0
   12.4580  -20.1358   -1.4978 O   0  0
   10.3415  -20.9292   -1.3578 O   0  0
   12.2180  -17.8674    1.8822 H   0  0
   11.3129  -15.7601    1.5782 H   0  0
   10.8864  -15.3415   -0.1043 H   0  0
    9.9503  -17.6293    1.9318 H   0  0
    8.9058  -16.5582    0.9602 H   0  0
    9.8745  -17.7307   -0.9696 H   0  0
    8.9289  -18.9041   -0.0250 H   0  0
   14.1829  -18.9839   -0.9812 H   0  0
   15.7257  -19.2336   -0.1416 H   0  0
   13.7611  -16.0390    1.4514 H   0  0
   13.7712  -19.9506    1.4168 H   0  0
   14.4563  -18.3939    1.8661 H   0  0
   17.1182  -14.3110   -0.9239 H   0  0
   15.4741  -16.2542   -2.2831 H   0  0
   16.8852  -16.9365   -1.4003 H   0  0
   15.2565  -13.3432    0.5518 H   0  0
   14.9495  -13.3159   -1.2136 H   0  0
   12.9745  -14.1229   -0.1179 H   0  0
   13.7515  -14.9863   -1.4349 H   0  0
   13.2537  -17.6199   -2.0436 H   0  0
   12.3362  -16.1155   -2.1398 H   0  0
   11.5113  -17.6430   -1.9619 H   0  0
   10.0748  -20.7578    1.3045 H   0  0
   10.7156  -19.5110    2.4229 H   0  0
   11.8192  -20.7221    1.7019 H   0  0
   15.9568  -17.0546    1.9925 H   0  0
   17.0953  -17.4096    0.6727 H   0  0
   17.4341  -15.1994    2.6806 H   0  0
   17.5033  -13.7420    1.5643 H   0  0
    9.5309  -20.8322   -0.8056 H   0  0
  1  3  1  0
  2  4  1  0
  3  5  1  0
  4  6  1  0
  5  6  1  0
  7  8  1  0
  8 10  1  0
  9  1  1  0
 10  2  1  0
  1  2  1  0
 11 12  1  0
 11 13  1  0
 12  7  1  0
 13 14  1  0
  7  9  1  0
 14  9  1  0
  1 15  1  0
  4 16  1  0
  4 17  1  0
  7 18  1  0
 19 18  1  0
 11 19  1  0
 19 20  2  0
 17 21  2  0
 17 22  1  0
  2 23  1  0
  3 24  1  0
  3 25  1  0
  5 26  1  0
  5 27  1  0
  6 28  1  0
  6 29  1  0
  8 30  1  0
  8 31  1  0
  9 32  1  0
 10 33  1  0
 10 34  1  0
 11 35  1  0
 12 36  1  0
 12 37  1  0
 13 38  1  0
 13 39  1  0
 14 40  1  0
 14 41  1  0
 15 42  1  0
 15 43  1  0
 15 44  1  0
 16 45  1  0
 16 46  1  0
 16 47  1  0
 18 48  1  0
 18 49  1  0
 20 50  1  0
 20 51  1  0
 22 52  1  0
M  END
> <Name>
RB2007b_1

> <Clean Energy>
266.301

$$$$
RB2007b_2
  SciTegic12132405553D

 55 58  0  0  0  0            999 V2000
   12.4574  -16.8463   -0.0011 C   0  0  1  0  0  0
   12.3822  -18.0613    0.9552 C   0  0  1  0  0  0
   11.0912  -16.0452    0.4049 C   0  0
   11.1080  -19.0366    0.3990 C   0  0  2  0  0  0
    9.7558  -16.9860    0.7591 C   0  0
    9.7940  -18.1442   -0.1185 C   0  0
   15.0884  -17.0540    0.0314 C   0  0  2  0  0  0
   14.7070  -18.6997    0.1244 C   0  0
   13.7655  -16.0577    0.3383 C   0  0  1  0  0  0
   13.8000  -18.7878    1.3188 C   0  0
   16.3530  -15.0051   -0.5250 C   0  0  1  0  0  0
   16.0160  -16.4857   -1.1866 C   0  0
   15.1625  -14.0008   -0.4577 C   0  0
   13.8910  -14.7688   -0.5006 C   0  0
   12.4833  -17.1724   -1.6729 C   0  0
   10.8156  -19.8788    1.6726 C   0  0
   11.4261  -20.0437   -0.6859 C   0  0
   16.1726  -16.7507    1.1151 C   0  0
   16.6015  -15.4280    0.8542 C   0  0
   17.1865  -14.6619    1.7712 C   0  0
   10.8969  -19.9460   -1.7987 O   0  0
   12.2697  -21.1139   -0.4027 O   0  0
   12.3940  -21.9515   -1.5492 C   0  0
   12.0773  -17.6396    1.9233 H   0  0
   11.2330  -15.5579    1.3786 H   0  0
   10.9292  -15.2719   -0.3579 H   0  0
    9.8039  -17.3754    1.7806 H   0  0
    8.8546  -16.3672    0.6546 H   0  0
    9.9371  -17.7063   -1.1009 H   0  0
    8.9042  -18.7870   -0.1408 H   0  0
   14.1318  -19.0679   -0.7242 H   0  0
   15.6418  -19.2696    0.2026 H   0  0
   13.6953  -15.8940    1.4237 H   0  0
   13.6134  -19.7839    1.7326 H   0  0
   14.3199  -18.2101    2.0671 H   0  0
   17.2101  -14.4462   -0.9234 H   0  0
   15.5746  -16.4594   -2.1939 H   0  0
   16.9271  -17.0982   -1.1948 H   0  0
   15.3124  -13.3160    0.3867 H   0  0
   15.0848  -13.4229   -1.3877 H   0  0
   13.0434  -14.0933   -0.3298 H   0  0
   13.8612  -15.0736   -1.5333 H   0  0
   13.3582  -17.7420   -1.9597 H   0  0
   12.4849  -16.2343   -2.2320 H   0  0
   11.6178  -17.7242   -1.9872 H   0  0
    9.9797  -20.5604    1.4661 H   0  0
   10.5482  -19.2126    2.5032 H   0  0
   11.6966  -20.4667    1.9483 H   0  0
   15.8512  -16.9090    2.1515 H   0  0
   17.0350  -17.4009    0.9183 H   0  0
   17.3423  -15.0359    2.7508 H   0  0
   17.4974  -13.6789    1.5221 H   0  0
   13.0471  -22.8033   -1.3101 H   0  0
   12.8291  -21.3752   -2.3769 H   0  0
   11.4001  -22.3225   -1.8408 H   0  0
  1  3  1  0
  2  4  1  0
  3  5  1  0
  4  6  1  0
  5  6  1  0
  7  8  1  0
  8 10  1  0
  9  1  1  0
 10  2  1  0
  1  2  1  0
 11 12  1  0
 11 13  1  0
 12  7  1  0
 13 14  1  0
  7  9  1  0
 14  9  1  0
  1 15  1  0
  4 16  1  0
  4 17  1  0
  7 18  1  0
 19 18  1  0
 11 19  1  0
 19 20  2  0
 17 21  2  0
 17 22  1  0
 22 23  1  0
  2 24  1  0
  3 25  1  0
  3 26  1  0
  5 27  1  0
  5 28  1  0
  6 29  1  0
  6 30  1  0
  8 31  1  0
  8 32  1  0
  9 33  1  0
 10 34  1  0
 10 35  1  0
 11 36  1  0
 12 37  1  0
 12 38  1  0
 13 39  1  0
 13 40  1  0
 14 41  1  0
 14 42  1  0
 15 43  1  0
 15 44  1  0
 15 45  1  0
 16 46  1  0
 16 47  1  0
 16 48  1  0
 18 49  1  0
 18 50  1  0
 20 51  1  0
 20 52  1  0
 23 53  1  0
 23 54  1  0
 23 55  1  0
M  END
> <Name>
RB2007b_2

> <Clean Energy>
261.833

$$$$
RB2007b_3
  SciTegic12132405553D

 56 60  0  0  0  0            999 V2000
   12.4351  -16.8418   -0.0681 C   0  0  1  0  0  0
   12.4289  -18.0464    0.9207 C   0  0  1  0  0  0
   11.0122  -16.1345    0.3035 C   0  0
   11.2423  -19.1523    0.3572 C   0  0  2  0  0  0
    9.7407  -17.1548    0.6498 C   0  0
    9.8714  -18.3355   -0.1933 C   0  0
   15.1091  -16.9183    0.1571 C   0  0  2  0  0  0
   14.8166  -18.5388    0.2926 C   0  0
   13.6432  -15.9983    0.3305 C   0  0  1  0  0  0
   13.9044  -18.6378    1.4194 C   0  0
   16.0520  -14.9352   -0.5270 C   0  0  1  0  0  0
   15.7662  -16.4600   -1.0636 C   0  0
   14.8863  -14.1286    0.2465 C   0  0
   13.6929  -14.5155   -0.3330 C   0  0
   12.5235  -17.1423   -1.6916 C   0  0
   10.9631  -19.9384    1.6892 C   0  0
   11.6559  -20.2047   -0.8018 C   0  0
   16.3483  -16.4841    1.1529 C   0  0
   16.9325  -15.1252    0.6286 C   0  0  2  0  0  0
   18.4061  -14.7941    0.7850 C   0  0
   12.7669  -20.0817   -1.3112 O   0  0
   10.8808  -21.3317   -1.3585 O   0  0
    9.5539  -21.6899   -0.8994 C   0  0
   18.0327  -15.7182   -0.1751 O   0  0
   12.0507  -17.6219    1.8613 H   0  0
   11.1031  -15.6320    1.2759 H   0  0
   10.8115  -15.3773   -0.4667 H   0  0
    9.7926  -17.5123    1.6818 H   0  0
    8.8020  -16.6017    0.5121 H   0  0
   10.0048  -17.9174   -1.1861 H   0  0
    9.0174  -19.0161   -0.2079 H   0  0
   14.2743  -18.9332   -0.5400 H   0  0
   15.7781  -19.0593    0.3821 H   0  0
   13.4701  -15.9141    1.4145 H   0  0
   13.7686  -19.6246    1.8744 H   0  0
   14.3635  -17.9723    2.1533 H   0  0
   16.4376  -14.2875   -1.3246 H   0  0
   15.0938  -16.5292   -1.9109 H   0  0
   16.7055  -16.9693   -1.3015 H   0  0
   14.7348  -14.4436    1.2876 H   0  0
   15.1396  -13.0605    0.2424 H   0  0
   12.8222  -13.9422    0.0089 H   0  0
   13.7690  -14.4850   -1.4295 H   0  0
   13.4371  -17.6657   -1.9441 H   0  0
   12.4975  -16.1893   -2.2337 H   0  0
   11.6963  -17.7432   -2.0331 H   0  0
   10.1701  -20.6639    1.5398 H   0  0
   10.6568  -19.2329    2.4724 H   0  0
   11.8703  -20.4612    2.0093 H   0  0
   16.1813  -16.5653    2.2357 H   0  0
   17.1318  -17.1998    0.8697 H   0  0
   18.6331  -13.7720    0.4539 H   0  0
   18.7671  -15.1096    1.7744 H   0  0
    9.1987  -22.5571   -1.4737 H   0  0
    8.8653  -20.8539   -1.0495 H   0  0
    9.5880  -21.9565    0.1626 H   0  0
  1  3  1  0
  2  4  1  0
  3  5  1  0
  4  6  1  0
  5  6  1  0
  7  8  1  0
  8 10  1  0
  9  1  1  0
 10  2  1  0
  1  2  1  0
 11 12  1  0
 11 13  1  0
 12  7  1  0
 13 14  1  0
  7  9  1  0
 14  9  1  0
  1 15  1  0
  4 16  1  0
  4 17  1  0
  7 18  1  0
 19 18  1  0
 11 19  1  0
 19 20  1  0
 17 21  2  0
 17 22  1  0
 22 23  1  0
 20 24  1  0
 19 24  1  0
  2 25  1  0
  3 26  1  0
  3 27  1  0
  5 28  1  0
  5 29  1  0
  6 30  1  0
  6 31  1  0
  8 32  1  0
  8 33  1  0
  9 34  1  0
 10 35  1  0
 10 36  1  0
 11 37  1  0
 12 38  1  0
 12 39  1  0
 13 40  1  0
 13 41  1  0
 14 42  1  0
 14 43  1  0
 15 44  1  0
 15 45  1  0
 15 46  1  0
 16 47  1  0
 16 48  1  0
 16 49  1  0
 18 50  1  0
 18 51  1  0
 20 52  1  0
 20 53  1  0
 23 54  1  0
 23 55  1  0
 23 56  1  0
M  END
> <Name>
RB2007b_3

> <Clean Energy>
372.113

$$$$
RB2007b_4
  SciTegic12132405553D

 56 59  0  0  0  0            999 V2000
   12.6110  -16.7293   -0.0257 C   0  0  1  0  0  0
   12.6646  -18.4020    0.3831 C   0  0  1  0  0  0
   11.3999  -16.2657    0.6508 C   0  0
   11.1526  -19.2341    0.3966 C   0  0  2  0  0  0
   10.0942  -16.9867   -0.1066 C   0  0
   10.3424  -18.5644   -0.6278 C   0  0
   15.4728  -16.8607   -0.0409 C   0  0  2  0  0  0
   15.1998  -18.3770    0.0168 C   0  0
   14.0228  -16.1310    0.5946 C   0  0  1  0  0  0
   13.8307  -18.9599   -0.5485 C   0  0
   16.0781  -14.6868   -0.3062 C   0  0  1  0  0  0
   15.6947  -16.0893   -1.1945 C   0  0
   15.2111  -14.2310    0.9679 C   0  0
   13.9529  -14.4870    0.5015 C   0  0
   12.4102  -16.2950   -1.6378 C   0  0
   10.3579  -19.1542    1.8051 C   0  0
   11.4282  -20.8045    0.3258 C   0  0
   16.8843  -16.5439    0.7467 C   0  0
   17.3030  -15.1740    0.1528 C   0  0  2  0  0  0
   17.8078  -15.4357   -0.7841 H   0  0
   12.5217  -21.1908    0.7492 O   0  0
   10.5130  -21.8961   -0.0524 O   0  0
    9.1552  -21.6552   -0.4841 C   0  0
   18.2817  -14.3832    0.9652 C   0  0
   19.3564  -14.8926    1.3000 O   0  0
   12.9900  -18.6120    1.4103 H   0  0
   11.5062  -16.6070    1.6867 H   0  0
   11.2532  -15.1790    0.6386 H   0  0
    9.2727  -16.9216    0.6201 H   0  0
    9.7886  -16.4359   -1.0072 H   0  0
   10.9314  -18.6139   -1.5498 H   0  0
    9.3646  -19.0089   -0.8010 H   0  0
   16.0438  -18.8727   -0.4806 H   0  0
   15.1913  -18.6610    1.0776 H   0  0
   14.0140  -16.4441    1.6472 H   0  0
   13.6551  -18.7715   -1.6135 H   0  0
   13.9131  -20.0332   -0.3884 H   0  0
   16.1721  -13.8424   -1.0008 H   0  0
   14.8579  -16.0327   -1.7742 H   0  0
   16.5438  -16.3846   -1.8232 H   0  0
   15.2800  -14.8664    1.8619 H   0  0
   15.4743  -13.1986    1.2331 H   0  0
   13.1430  -14.1203    1.1440 H   0  0
   13.8530  -14.0763   -0.5135 H   0  0
   13.2391  -16.6652   -2.2210 H   0  0
   12.3765  -15.2018   -1.7134 H   0  0
   11.5251  -16.6888   -2.1082 H   0  0
    9.4202  -19.7151    1.7172 H   0  0
   10.1293  -18.1478    2.1336 H   0  0
   10.9852  -19.6223    2.5752 H   0  0
   16.6249  -16.6171    1.8127 H   0  0
   17.7471  -17.1778    0.5059 H   0  0
    8.6645  -22.6166   -0.6915 H   0  0
    9.1583  -21.0472   -1.3974 H   0  0
    8.6035  -21.1291    0.3082 H   0  0
   18.0548  -13.3867    1.2501 H   0  0
  1  3  1  0
  2  4  1  0
  3  5  1  0
  4  6  1  0
  5  6  1  0
  7  8  1  0
  8 10  1  0
  9  1  1  0
 10  2  1  0
  1  2  1  0
 11 12  1  0
 11 13  1  0
 12  7  1  0
 13 14  1  0
  7  9  1  0
 14  9  1  0
  1 15  1  0
  4 16  1  0
  4 17  1  0
  7 18  1  0
 19 18  1  0
 11 19  1  0
 19 20  1  0
 17 21  2  0
 17 22  1  0
 22 23  1  0
 19 24  1  0
 24 25  2  0
  2 26  1  0
  3 27  1  0
  3 28  1  0
  5 29  1  0
  5 30  1  0
  6 31  1  0
  6 32  1  0
  8 33  1  0
  8 34  1  0
  9 35  1  0
 10 36  1  0
 10 37  1  0
 11 38  1  0
 12 39  1  0
 12 40  1  0
 13 41  1  0
 13 42  1  0
 14 43  1  0
 14 44  1  0
 15 45  1  0
 15 46  1  0
 15 47  1  0
 16 48  1  0
 16 49  1  0
 16 50  1  0
 18 51  1  0
 18 52  1  0
 23 53  1  0
 23 54  1  0
 23 55  1  0
 24 56  1  0
M  END
> <Name>
RB2007b_4

> <Clean Energy>
270.773

$$$$
RB2007b_5
  SciTegic12132405553D

 56 59  0  0  0  0            999 V2000
   12.5956  -16.7467   -0.0866 C   0  0  1  0  0  0
   12.6383  -18.4112    0.3619 C   0  0  1  0  0  0
   11.3391  -16.2756    0.4915 C   0  0
   11.1249  -19.2503    0.3073 C   0  0  2  0  0  0
   10.0883  -17.0268   -0.3227 C   0  0
   10.3739  -18.6150   -0.7815 C   0  0
   15.4558  -16.8356    0.1145 C   0  0  2  0  0  0
   15.1881  -18.3541    0.1786 C   0  0
   13.9533  -16.1179    0.6127 C   0  0  1  0  0  0
   13.8737  -18.9689   -0.4737 C   0  0
   16.0804  -14.6801   -0.1469 C   0  0  1  0  0  0
   15.7433  -16.1163   -1.0530 C   0  0
   15.0831  -14.2251    1.0407 C   0  0
   13.8754  -14.4896    0.4831 C   0  0
   12.4979  -16.3573   -1.7210 C   0  0
   10.2633  -19.1276    1.6768 C   0  0
   11.3837  -20.8291    0.2659 C   0  0
   16.8079  -16.4773    1.0370 C   0  0
   17.3140  -15.0571    0.5370 C   0  0  1  0  0  0
   18.3255  -15.2379   -0.5869 C   0  0
   12.4898  -21.2258    0.6414 O   0  0
   10.4354  -21.9186   -0.0501 O   0  0
    9.0524  -21.6773   -0.4199 C   0  0
   17.7570  -14.3549    1.2561 H   0  0
   19.1646  -14.3525   -0.7867 O   0  0
   12.8983  -18.5964    1.4135 H   0  0
   11.3807  -16.5864    1.5420 H   0  0
   11.1863  -15.1913    0.4409 H   0  0
    9.2232  -16.9471    0.3493 H   0  0
    9.8367  -16.5039   -1.2566 H   0  0
   11.0166  -18.6880   -1.6656 H   0  0
    9.4101  -19.0703   -0.9984 H   0  0
   16.0749  -18.8496   -0.2383 H   0  0
   15.1014  -18.6161    1.2437 H   0  0
   13.8682  -16.4086    1.6718 H   0  0
   13.7733  -18.8042   -1.5538 H   0  0
   13.9593  -20.0358   -0.2879 H   0  0
   16.2029  -13.8289   -0.8296 H   0  0
   14.9448  -16.0747   -1.6786 H   0  0
   16.5954  -16.4569   -1.6254 H   0  0
   15.0799  -14.8406    1.9518 H   0  0
   15.3102  -13.1862    1.3127 H   0  0
   13.0158  -14.1182    1.0520 H   0  0
   13.8538  -14.0982   -0.5460 H   0  0
   13.3677  -16.7315   -2.2388 H   0  0
   12.4573  -15.2665   -1.8268 H   0  0
   11.6486  -16.7745   -2.2360 H   0  0
    9.3275  -19.6788    1.5667 H   0  0
   10.0301  -18.1107    1.9656 H   0  0
   10.8516  -19.5782    2.4874 H   0  0
   16.4283  -16.5589    2.0671 H   0  0
   17.6919  -17.1125    0.8964 H   0  0
   18.4117  -16.1594   -1.1037 H   0  0
    8.5512  -22.6401   -0.5941 H   0  0
    9.0087  -21.0772   -1.3356 H   0  0
    8.5388  -21.1473    0.3936 H   0  0
  1  3  1  0
  2  4  1  0
  3  5  1  0
  4  6  1  0
  5  6  1  0
  7  8  1  0
  8 10  1  0
  9  1  1  0
 10  2  1  0
  1  2  1  0
 11 12  1  0
 11 13  1  0
 12  7  1  0
 13 14  1  0
  7  9  1  0
 14  9  1  0
  1 15  1  0
  4 16  1  0
  4 17  1  0
  7 18  1  0
 19 18  1  0
 11 19  1  0
 19 20  1  0
 17 21  2  0
 17 22  1  0
 22 23  1  0
 19 24  1  0
 20 25  2  0
  2 26  1  0
  3 27  1  0
  3 28  1  0
  5 29  1  0
  5 30  1  0
  6 31  1  0
  6 32  1  0
  8 33  1  0
  8 34  1  0
  9 35  1  0
 10 36  1  0
 10 37  1  0
 11 38  1  0
 12 39  1  0
 12 40  1  0
 13 41  1  0
 13 42  1  0
 14 43  1  0
 14 44  1  0
 15 45  1  0
 15 46  1  0
 15 47  1  0
 16 48  1  0
 16 49  1  0
 16 50  1  0
 18 51  1  0
 18 52  1  0
 20 53  1  0
 23 54  1  0
 23 55  1  0
 23 56  1  0
M  END
> <Name>
RB2007b_5

> <Clean Energy>
279.418

$$$$
RB2007b_6
  SciTegic12132405553D

 58 61  0  0  0  0            999 V2000
   12.5889  -16.7717   -0.0916 C   0  0  1  0  0  0
   12.6160  -18.4398    0.3512 C   0  0  1  0  0  0
   11.3547  -16.2827    0.5216 C   0  0
   11.0848  -19.2527    0.3284 C   0  0  2  0  0  0
   10.0727  -17.0087   -0.2667 C   0  0
   10.3190  -18.5988   -0.7377 C   0  0
   15.4446  -16.9074    0.0286 C   0  0  2  0  0  0
   15.1641  -18.4224    0.0987 C   0  0
   13.9706  -16.1643    0.5799 C   0  0  1  0  0  0
   13.8206  -19.0133   -0.5220 C   0  0
   16.0729  -14.7416   -0.2422 C   0  0  1  0  0  0
   15.7246  -16.1557   -1.1268 C   0  0
   15.1415  -14.2623    0.9791 C   0  0
   13.9099  -14.5223    0.4538 C   0  0
   12.4606  -16.3751   -1.7179 C   0  0
   10.2613  -19.1199    1.7214 C   0  0
   11.3109  -20.8361    0.2688 C   0  0
   16.8118  -16.5763    0.8807 C   0  0
   17.2885  -15.2266    0.2721 C   0  0  2  0  0  0
   17.8226  -15.4733   -0.6521 H   0  0
   12.4221  -21.2581    0.5969 O   0  0
   10.3285  -21.9045   -0.0198 O   0  0
    8.9360  -21.6344   -0.3346 C   0  0
   18.2349  -14.3926    1.1544 C   0  0
   18.6108  -13.2096    0.4514 O   0  0
   12.8987  -18.6358    1.3935 H   0  0
   11.4163  -16.5981    1.5684 H   0  0
   11.2184  -15.1958    0.4773 H   0  0
    9.2253  -16.9171    0.4266 H   0  0
    9.8080  -16.4774   -1.1918 H   0  0
   10.9385  -18.6793   -1.6380 H   0  0
    9.3424  -19.0363   -0.9331 H   0  0
   16.0300  -18.9274   -0.3495 H   0  0
   15.1041  -18.6889    1.1622 H   0  0
   13.9105  -16.4574    1.6366 H   0  0
   13.6942  -18.8414   -1.5967 H   0  0
   13.8948  -20.0825   -0.3425 H   0  0
   16.2004  -13.9061   -0.9422 H   0  0
   14.9138  -16.1065   -1.7469 H   0  0
   16.6017  -16.4627   -1.7098 H   0  0
   15.1610  -14.8816    1.8868 H   0  0
   15.3928  -13.2256    1.2400 H   0  0
   13.0709  -14.1420    1.0491 H   0  0
   13.8614  -14.1294   -0.5721 H   0  0
   13.3140  -16.7613   -2.2560 H   0  0
   12.4349  -15.2838   -1.8201 H   0  0
   11.5940  -16.7779   -2.2154 H   0  0
    9.3124  -19.6515    1.6336 H   0  0
   10.0558  -18.1003    2.0205 H   0  0
   10.8612  -19.5862    2.5142 H   0  0
   16.4950  -16.6170    1.9331 H   0  0
   17.6798  -17.2242    0.7057 H   0  0
    8.4110  -22.5861   -0.4989 H   0  0
    8.8680  -21.0240   -1.2419 H   0  0
    8.4631  -21.1043    0.5030 H   0  0
   17.7296  -14.1176    2.0909 H   0  0
   19.1309  -14.9843    1.3858 H   0  0
   19.0656  -13.4594   -0.3904 H   0  0
  1  3  1  0
  2  4  1  0
  3  5  1  0
  4  6  1  0
  5  6  1  0
  7  8  1  0
  8 10  1  0
  9  1  1  0
 10  2  1  0
  1  2  1  0
 11 12  1  0
 11 13  1  0
 12  7  1  0
 13 14  1  0
  7  9  1  0
 14  9  1  0
  1 15  1  0
  4 16  1  0
  4 17  1  0
  7 18  1  0
 19 18  1  0
 11 19  1  0
 19 20  1  0
 17 21  2  0
 17 22  1  0
 22 23  1  0
 19 24  1  0
 24 25  1  0
  2 26  1  0
  3 27  1  0
  3 28  1  0
  5 29  1  0
  5 30  1  0
  6 31  1  0
  6 32  1  0
  8 33  1  0
  8 34  1  0
  9 35  1  0
 10 36  1  0
 10 37  1  0
 11 38  1  0
 12 39  1  0
 12 40  1  0
 13 41  1  0
 13 42  1  0
 14 43  1  0
 14 44  1  0
 15 45  1  0
 15 46  1  0
 15 47  1  0
 16 48  1  0
 16 49  1  0
 16 50  1  0
 18 51  1  0
 18 52  1  0
 23 53  1  0
 23 54  1  0
 23 55  1  0
 24 56  1  0
 24 57  1  0
 25 58  1  0
M  END
> <Name>
RB2007b_6

> <Clean Energy>
258.016

$$$$
RB2007b_7
  SciTegic12132405553D

 57 60  0  0  0  0            999 V2000
   12.5201  -16.7815   -0.0121 C   0  0  1  0  0  0
   12.6691  -18.3964    0.2993 C   0  0  1  0  0  0
   11.1996  -16.2915    0.5355 C   0  0
   11.2564  -19.2843    0.1517 C   0  0  2  0  0  0
   10.0002  -17.0779   -0.2800 C   0  0
   10.3186  -18.6022   -0.8346 C   0  0
   15.2520  -16.6591    0.1572 C   0  0  2  0  0  0
   15.1816  -18.1912    0.1982 C   0  0
   13.8091  -16.0777    0.6492 C   0  0  1  0  0  0
   13.9267  -18.7661   -0.5560 C   0  0
   16.0018  -14.6046   -0.6486 C   0  0  1  0  0  0
   15.5452  -16.0295   -1.1666 C   0  0
   15.0594  -13.9522    0.4658 C   0  0
   13.6978  -14.5377    0.3053 C   0  0
   12.4376  -16.4288   -1.5784 C   0  0
   10.4728  -19.2202    1.5337 C   0  0
   11.5250  -20.8438   -0.2192 C   0  0
   16.4698  -16.1067    1.0276 C   0  0
   17.2130  -15.1363    0.0541 C   0  0  2  0  0  0
   17.8046  -15.7048   -0.6794 H   0  0
   12.6557  -21.1758   -0.5807 O   0  0
   10.5593  -21.9585   -0.2564 O   0  0
    9.1640  -21.7800    0.0767 C   0  0
   18.1141  -14.1448    0.7669 C   0  0
   19.4902  -14.2443    0.6007 O   0  0
   17.6549  -13.2315    1.4664 O   0  0
   12.9742  -18.4794    1.3424 H   0  0
   11.1331  -16.5145    1.6004 H   0  0
   11.1099  -15.2161    0.3826 H   0  0
    9.1432  -17.1479    0.3899 H   0  0
    9.7383  -16.4658   -1.1431 H   0  0
   10.7924  -18.5461   -1.8147 H   0  0
    9.3900  -19.1678   -0.9112 H   0  0
   16.0815  -18.5933   -0.2672 H   0  0
   15.1374  -18.5095    1.2398 H   0  0
   13.7446  -16.1924    1.7312 H   0  0
   13.8493  -18.3199   -1.5475 H   0  0
   14.0103  -19.8489   -0.6499 H   0  0
   16.2462  -13.9154   -1.4569 H   0  0
   14.6598  -15.9724   -1.7997 H   0  0
   16.3417  -16.5474   -1.7008 H   0  0
   15.4466  -14.1795    1.4591 H   0  0
   15.0172  -12.8715    0.3303 H   0  0
   12.9995  -14.0522    0.9871 H   0  0
   13.3540  -14.4080   -0.7209 H   0  0
   13.3560  -16.7468   -2.0718 H   0  0
   12.3126  -15.3531   -1.7030 H   0  0
   11.5883  -16.9469   -2.0237 H   0  0
    9.5493  -19.7937    1.4553 H   0  0
   10.2366  -18.1827    1.7703 H   0  0
   11.0946  -19.6401    2.3244 H   0  0
   16.1082  -15.5732    1.9066 H   0  0
   17.1246  -16.9204    1.3397 H   0  0
    8.6423  -22.7322   -0.0191 H   0  0
    8.7182  -21.0523   -0.6015 H   0  0
    9.0778  -21.4207    1.1022 H   0  0
   19.8167  -15.1842    0.9360 H   0  0
  1  3  1  0
  2  4  1  0
  3  5  1  0
  4  6  1  0
  5  6  1  0
  7  8  1  0
  8 10  1  0
  9  1  1  0
 10  2  1  0
  1  2  1  0
 11 12  1  0
 11 13  1  0
 12  7  1  0
 13 14  1  0
  7  9  1  0
 14  9  1  0
  1 15  1  0
  4 16  1  0
  4 17  1  0
  7 18  1  0
 19 18  1  0
 11 19  1  0
 19 20  1  0
 17 21  2  0
 17 22  1  0
 22 23  1  0
 19 24  1  0
 24 25  1  0
 24 26  2  0
  2 27  1  0
  3 28  1  0
  3 29  1  0
  5 30  1  0
  5 31  1  0
  6 32  1  0
  6 33  1  0
  8 34  1  0
  8 35  1  0
  9 36  1  0
 10 37  1  0
 10 38  1  0
 11 39  1  0
 12 40  1  0
 12 41  1  0
 13 42  1  0
 13 43  1  0
 14 44  1  0
 14 45  1  0
 15 46  1  0
 15 47  1  0
 15 48  1  0
 16 49  1  0
 16 50  1  0
 16 51  1  0
 18 52  1  0
 18 53  1  0
 23 54  1  0
 23 55  1  0
 23 56  1  0
 25 57  1  0
M  END
> <Name>
RB2007b_7

> <Clean Energy>
171.28

$$$$
RB2007b_8
  SciTegic12132405553D

 55 58  0  0  0  0            999 V2000
   12.4515  -16.8635   -0.0488 C   0  0  1  0  0  0
   12.4231  -18.0610    0.9514 C   0  0  1  0  0  0
   11.0171  -16.1594    0.2897 C   0  0
   11.2511  -19.1721    0.3649 C   0  0  2  0  0  0
    9.7394  -17.1769    0.6120 C   0  0
    9.8907  -18.3588   -0.2227 C   0  0
   15.1517  -16.9312    0.2557 C   0  0  2  0  0  0
   14.8403  -18.5491    0.4131 C   0  0
   13.6431  -16.0052    0.3836 C   0  0  1  0  0  0
   13.8853  -18.6421    1.5048 C   0  0
   15.9748  -14.8542   -0.3551 C   0  0  1  0  0  0
   15.7578  -16.4413   -0.9358 C   0  0
   14.8217  -14.0835    0.4235 C   0  0
   13.6709  -14.4945   -0.2319 C   0  0
   12.5749  -17.1786   -1.6626 C   0  0
   10.9359  -19.9535    1.6906 C   0  0
   11.6996  -20.2327   -0.7702 C   0  0
   16.2549  -16.3777    1.3770 C   0  0
   16.9691  -15.1710    0.6186 C   0  0  1  0  0  0
   17.9922  -15.7229   -0.2067 O   0  0
   12.8355  -20.1271   -1.2267 O   0  0
   10.9342  -21.3536   -1.3546 O   0  0
    9.5815  -21.6905   -0.9538 C   0  0
   12.0181  -17.6291    1.8771 H   0  0
   11.0868  -15.6525    1.2616 H   0  0
   10.8313  -15.4061   -0.4876 H   0  0
    9.7677  -17.5298    1.6462 H   0  0
    8.8043  -16.6242    0.4503 H   0  0
   10.0462  -17.9442   -1.2136 H   0  0
    9.0378  -19.0392   -0.2541 H   0  0
   14.3248  -18.9518   -0.4357 H   0  0
   15.7948  -19.0750    0.5429 H   0  0
   13.4304  -15.9376    1.4616 H   0  0
   13.7368  -19.6262    1.9624 H   0  0
   14.3134  -17.9711    2.2494 H   0  0
   16.3295  -14.2138   -1.1728 H   0  0
   15.0766  -16.5308   -1.7620 H   0  0
   16.7027  -16.9075   -1.2118 H   0  0
   14.6306  -14.4203    1.4480 H   0  0
   15.0607  -13.0123    0.4429 H   0  0
   12.7702  -13.9586    0.0906 H   0  0
   13.7892  -14.4283   -1.3233 H   0  0
   13.4961  -17.7039   -1.8864 H   0  0
   12.5614  -16.2293   -2.2120 H   0  0
   11.7578  -17.7842   -2.0186 H   0  0
   10.1481  -20.6815    1.5199 H   0  0
   10.6064  -19.2462    2.4627 H   0  0
   11.8345  -20.4739    2.0377 H   0  0
   15.6543  -16.1909    2.2796 H   0  0
   17.1143  -17.0243    1.5967 H   0  0
   17.4183  -14.3876    1.2433 H   0  0
   18.7023  -16.1070    0.3637 H   0  0
    9.2416  -22.5593   -1.5349 H   0  0
    8.9113  -20.8479   -1.1455 H   0  0
    9.5618  -21.9449    0.1116 H   0  0
  1  3  1  0
  2  4  1  0
  3  5  1  0
  4  6  1  0
  5  6  1  0
  7  8  1  0
  8 10  1  0
  9  1  1  0
 10  2  1  0
  1  2  1  0
 11 12  1  0
 11 13  1  0
 12  7  1  0
 13 14  1  0
  7  9  1  0
 14  9  1  0
  1 15  1  0
  4 16  1  0
  4 17  1  0
  7 18  1  0
 19 18  1  0
 11 19  1  0
 19 20  1  0
 17 21  2  0
 17 22  1  0
 22 23  1  0
  2 24  1  0
  3 25  1  0
  3 26  1  0
  5 27  1  0
  5 28  1  0
  6 29  1  0
  6 30  1  0
  8 31  1  0
  8 32  1  0
  9 33  1  0
 10 34  1  0
 10 35  1  0
 11 36  1  0
 12 37  1  0
 12 38  1  0
 13 39  1  0
 13 40  1  0
 14 41  1  0
 14 42  1  0
 15 43  1  0
 15 44  1  0
 15 45  1  0
 16 46  1  0
 16 47  1  0
 16 48  1  0
 18 49  1  0
 18 50  1  0
 19 51  1  0
 20 52  1  0
 23 53  1  0
 23 54  1  0
 23 55  1  0
M  END
> <Name>
RB2007b_8

> <Clean Energy>
311.058

$$$$
RB2007b_9
  SciTegic12132405553D

 53 56  0  0  0  0            999 V2000
   12.4863  -16.9118    0.0457 C   0  0  1  0  0  0
   12.5233  -18.1613    0.9519 C   0  0  1  0  0  0
   11.1145  -16.1893    0.5509 C   0  0
   11.2617  -19.2080    0.4503 C   0  0  2  0  0  0
    9.8519  -17.1916    0.9654 C   0  0
    9.8720  -18.3301    0.0637 C   0  0
   15.1378  -16.9452   -0.0253 C   0  0  2  0  0  0
   14.8770  -18.5983    0.0202 C   0  0
   13.7644  -16.0536    0.3517 C   0  0  1  0  0  0
   13.9993  -18.8066    1.2322 C   0  0
   16.2418  -14.8134   -0.5575 C   0  0  1  0  0  0
   15.9921  -16.2900   -1.2469 C   0  0
   15.0049  -13.8906   -0.4345 C   0  0
   13.7784  -14.7386   -0.4566 C   0  0
   12.4365  -17.1949   -1.6180 C   0  0
   11.0768  -20.0543    1.7600 C   0  0
   11.5561  -20.2258   -0.7708 C   0  0
   16.2199  -16.5972    1.0458 C   0  0
   16.5319  -15.2355    0.8096 C   0  0
   16.8887  -14.4568    1.6998 O   0  0
   12.6557  -20.1485   -1.3157 O   0  0
   10.6946  -21.2881   -1.3292 O   0  0
    9.3715  -21.5914   -0.8177 C   0  0
   12.2500  -17.7850    1.9477 H   0  0
   11.2948  -15.7206    1.5274 H   0  0
   10.8707  -15.4042   -0.1776 H   0  0
    9.9836  -17.5970    1.9724 H   0  0
    8.9214  -16.6089    0.9351 H   0  0
    9.9311  -17.8672   -0.9182 H   0  0
    8.9994  -18.9849    0.0951 H   0  0
   14.3211  -18.9593   -0.8279 H   0  0
   15.8499  -19.1051    0.0558 H   0  0
   13.7287  -15.9226    1.4433 H   0  0
   13.8933  -19.8307    1.6065 H   0  0
   14.5006  -18.2267    1.9926 H   0  0
   17.0537  -14.1925   -0.9590 H   0  0
   15.5270  -16.2691   -2.2436 H   0  0
   16.9409  -16.8412   -1.2894 H   0  0
   15.1470  -13.2244    0.4275 H   0  0
   14.8647  -13.2939   -1.3453 H   0  0
   12.8979  -14.1214   -0.2405 H   0  0
   13.7296  -15.0257   -1.4966 H   0  0
   13.3247  -17.7104   -1.9626 H   0  0
   12.3593  -16.2448   -2.1522 H   0  0
   11.5818  -17.7880   -1.8964 H   0  0
   10.2547  -20.7553    1.6410 H   0  0
   10.8554  -19.3839    2.6006 H   0  0
   11.9941  -20.6122    1.9751 H   0  0
   15.9298  -16.8091    2.0823 H   0  0
   17.1208  -17.1770    0.8050 H   0  0
    8.9441  -22.4204   -1.3990 H   0  0
    8.7220  -20.7169   -0.9116 H   0  0
    9.4394  -21.8915    0.2340 H   0  0
  1  3  1  0
  2  4  1  0
  3  5  1  0
  4  6  1  0
  5  6  1  0
  7  8  1  0
  8 10  1  0
  9  1  1  0
 10  2  1  0
  1  2  1  0
 11 12  1  0
 11 13  1  0
 12  7  1  0
 13 14  1  0
  7  9  1  0
 14  9  1  0
  1 15  1  0
  4 16  1  0
  4 17  1  0
  7 18  1  0
 19 18  1  0
 11 19  1  0
 19 20  2  0
 17 21  2  0
 17 22  1  0
 22 23  1  0
  2 24  1  0
  3 25  1  0
  3 26  1  0
  5 27  1  0
  5 28  1  0
  6 29  1  0
  6 30  1  0
  8 31  1  0
  8 32  1  0
  9 33  1  0
 10 34  1  0
 10 35  1  0
 11 36  1  0
 12 37  1  0
 12 38  1  0
 13 39  1  0
 13 40  1  0
 14 41  1  0
 14 42  1  0
 15 43  1  0
 15 44  1  0
 15 45  1  0
 16 46  1  0
 16 47  1  0
 16 48  1  0
 18 49  1  0
 18 50  1  0
 23 51  1  0
 23 52  1  0
 23 53  1  0
M  END
> <Name>
RB2007b_9

> <Clean Energy>
278.42

$$$$
RB2007a_1
  SciTegic12132405553D

 52 55  0  0  0  0            999 V2000
   12.4775  -16.7859   -0.0672 C   0  0  1  0  0  0
   12.4188  -18.1456    0.7191 C   0  0  1  0  0  0
   11.2242  -15.9903    0.5232 C   0  0
   11.1750  -19.0782    0.3431 C   0  0  2  0  0  0
    9.9373  -16.9169    0.8388 C   0  0
    9.9520  -18.1571   -0.0333 C   0  0
   15.1074  -17.0288   -0.0512 C   0  0  2  0  0  0
   14.7158  -18.5518   -0.2306 C   0  0
   13.8168  -16.1373    0.3919 C   0  0  1  0  0  0
   13.7865  -18.9396    0.9053 C   0  0
   16.3503  -15.0082   -0.5083 C   0  0  1  0  0  0
   15.8555  -16.3598   -1.2384 C   0  0
   15.2153  -14.0092   -0.2101 C   0  0
   13.8726  -14.7235   -0.2444 C   0  0
   12.4204  -16.8196   -1.6796 C   0  0
   10.8370  -19.9585    1.5576 C   0  0
   11.3659  -19.9931   -0.8657 C   0  0
   12.2041  -19.7564   -1.7284 O   0  0
   10.6013  -21.1535   -0.9579 O   0  0
   16.2260  -16.9174    1.0250 C   0  0
   16.7102  -15.5633    0.8103 C   0  0
   17.4473  -14.9024    1.7002 C   0  0
   12.1839  -17.8273    1.7348 H   0  0
   11.5325  -15.5071    1.4503 H   0  0
   10.9290  -15.2318   -0.2018 H   0  0
    9.9580  -17.2150    1.8870 H   0  0
    9.0285  -16.3489    0.6399 H   0  0
   10.0345  -17.8600   -1.0788 H   0  0
    9.0255  -18.7117    0.1154 H   0  0
   14.2097  -18.6926   -1.1856 H   0  0
   15.6134  -19.1695   -0.1999 H   0  0
   13.8095  -16.0381    1.4774 H   0  0
   13.5972  -20.0126    0.8776 H   0  0
   14.2401  -18.6746    1.8604 H   0  0
   17.1968  -14.5435   -1.0137 H   0  0
   15.1878  -16.1502   -2.0740 H   0  0
   16.6930  -16.9653   -1.5848 H   0  0
   15.3676  -13.5740    0.7776 H   0  0
   15.2231  -13.2191   -0.9610 H   0  0
   13.1521  -14.0967    0.2811 H   0  0
   13.5770  -14.8202   -1.2891 H   0  0
   13.2823  -17.3657   -2.0629 H   0  0
   12.4358  -15.8003   -2.0656 H   0  0
   11.5044  -17.3155   -2.0009 H   0  0
    9.9900  -20.6009    1.3169 H   0  0
   10.5817  -19.3244    2.4067 H   0  0
   11.6993  -20.5750    1.8113 H   0  0
   10.0554  -21.1432   -1.8548 H   0  0
   15.8232  -17.0401    2.0304 H   0  0
   17.0136  -17.6518    0.8564 H   0  0
   17.7158  -15.3758    2.6446 H   0  0
   17.7824  -13.8879    1.4845 H   0  0
  1  3  1  0
  2  4  1  0
  3  5  1  0
  4  6  1  0
  5  6  1  0
  7  8  1  0
  8 10  1  0
  9  1  1  0
 10  2  1  0
  1  2  1  0
 11 12  1  0
 11 13  1  0
 12  7  1  0
 13 14  1  0
  7  9  1  0
 14  9  1  0
  1 15  1  0
  4 16  1  0
 17 18  2  0
 17 19  1  0
  4 17  1  0
  7 20  1  0
 21 20  1  0
 21 11  1  0
 21 22  2  0
  2 23  1  0
  3 24  1  0
  3 25  1  0
  5 26  1  0
  5 27  1  0
  6 28  1  0
  6 29  1  0
  8 30  1  0
  8 31  1  0
  9 32  1  0
 10 33  1  0
 10 34  1  0
 11 35  1  0
 12 36  1  0
 12 37  1  0
 13 38  1  0
 13 39  1  0
 14 40  1  0
 14 41  1  0
 15 42  1  0
 15 43  1  0
 15 44  1  0
 16 45  1  0
 16 46  1  0
 16 47  1  0
 19 48  1  0
 20 49  1  0
 20 50  1  0
 22 51  1  0
 22 52  1  0
M  END
> <Name>
RB2007a_1

> <Clean Energy>
140.629

$$$$
RB2007a_2
  SciTegic12132405553D

 55 58  0  0  0  0            999 V2000
   12.4816  -16.8279   -0.0781 C   0  0  1  0  0  0
   12.4640  -18.1599    0.7520 C   0  0  1  0  0  0
   11.2074  -16.0478    0.4835 C   0  0
   11.2562  -19.1587    0.4361 C   0  0  2  0  0  0
    9.9537  -17.0001    0.8510 C   0  0
    9.9939  -18.2841    0.0389 C   0  0
   15.1249  -16.9950   -0.0349 C   0  0  2  0  0  0
   14.7808  -18.5244   -0.1701 C   0  0
   13.8057  -16.1278    0.3712 C   0  0  1  0  0  0
   13.8583  -18.8996    0.9742 C   0  0
   16.3253  -14.9594   -0.5267 C   0  0  1  0  0  0
   15.8639  -16.3378   -1.2316 C   0  0
   15.1642  -13.9831   -0.2498 C   0  0
   13.8373  -14.7272   -0.2920 C   0  0
   12.4248  -16.9216   -1.6840 C   0  0
   11.0410  -19.9041    1.7871 C   0  0
   11.5209  -20.1471   -0.8002 C   0  0
   12.4563  -19.8754   -1.5537 O   0  0
   10.7683  -21.3513   -1.1786 O   0  0
   16.2326  -16.8356    1.0449 C   0  0
   16.6932  -15.4816    0.8038 C   0  0
   17.4336  -14.7995    1.6745 C   0  0
    9.6209  -21.7877   -0.4180 C   0  0
   12.2220  -17.8085    1.7551 H   0  0
   11.5050  -15.5123    1.3850 H   0  0
   10.8833  -15.3338   -0.2736 H   0  0
    9.9920  -17.2473    1.9119 H   0  0
    9.0266  -16.4694    0.6342 H   0  0
   10.0501  -18.0355   -1.0209 H   0  0
    9.0869  -18.8572    0.2306 H   0  0
   14.2831  -18.7088   -1.1221 H   0  0
   15.6952  -19.1153   -0.1170 H   0  0
   13.7870  -16.0033    1.4539 H   0  0
   13.7056  -19.9788    0.9864 H   0  0
   14.2969  -18.5835    1.9207 H   0  0
   17.1621  -14.4842   -1.0387 H   0  0
   15.1966  -16.1607   -2.0751 H   0  0
   16.7161  -16.9325   -1.5604 H   0  0
   15.2959  -13.5359    0.7354 H   0  0
   15.1629  -13.1997   -1.0077 H   0  0
   13.0944  -14.1070    0.2096 H   0  0
   13.5608  -14.8509   -1.3391 H   0  0
   13.3017  -17.4566   -2.0485 H   0  0
   12.4111  -15.9170   -2.1068 H   0  0
   11.5232  -17.4546   -1.9857 H   0  0
   10.2267  -20.6208    1.6815 H   0  0
   10.7908  -19.1826    2.5649 H   0  0
   11.9549  -20.4311    2.0614 H   0  0
   15.8245  -16.9423    2.0500 H   0  0
   17.0349  -17.5589    0.8993 H   0  0
   17.7215  -15.2568    2.6211 H   0  0
   17.7522  -13.7836    1.4408 H   0  0
    9.2119  -22.6941   -0.8643 H   0  0
    8.8616  -21.0057   -0.4240 H   0  0
    9.9221  -21.9932    0.6092 H   0  0
  1  3  1  0
  2  4  1  0
  3  5  1  0
  4  6  1  0
  5  6  1  0
  7  8  1  0
  8 10  1  0
  9  1  1  0
 10  2  1  0
  1  2  1  0
 11 12  1  0
 11 13  1  0
 12  7  1  0
 13 14  1  0
  7  9  1  0
 14  9  1  0
  1 15  1  0
  4 16  1  0
 17 18  2  0
 17 19  1  0
  4 17  1  0
  7 20  1  0
 21 20  1  0
 21 11  1  0
 21 22  2  0
 19 23  1  0
  2 24  1  0
  3 25  1  0
  3 26  1  0
  5 27  1  0
  5 28  1  0
  6 29  1  0
  6 30  1  0
  8 31  1  0
  8 32  1  0
  9 33  1  0
 10 34  1  0
 10 35  1  0
 11 36  1  0
 12 37  1  0
 12 38  1  0
 13 39  1  0
 13 40  1  0
 14 41  1  0
 14 42  1  0
 15 43  1  0
 15 44  1  0
 15 45  1  0
 16 46  1  0
 16 47  1  0
 16 48  1  0
 20 49  1  0
 20 50  1  0
 22 51  1  0
 22 52  1  0
 23 53  1  0
 23 54  1  0
 23 55  1  0
M  END
> <Name>
RB2007a_2

> <Clean Energy>
152.307129

$$$$
RB2007a_3
  SciTegic12132405553D

 53 56  0  0  0  0            999 V2000
   12.4479  -16.7124   -0.0856 C   0  0  1  0  0  0
   12.3652  -18.1435    0.5591 C   0  0  1  0  0  0
   11.2291  -15.9463    0.6097 C   0  0
   11.0719  -18.9900    0.0866 C   0  0  2  0  0  0
    9.9366  -16.8742    0.8936 C   0  0
    9.8673  -17.9943   -0.1183 C   0  0
   15.0726  -17.0033   -0.1523 C   0  0  2  0  0  0
   14.6470  -18.4937   -0.4713 C   0  0
   13.8094  -16.1365    0.4030 C   0  0  1  0  0  0
   13.7311  -18.9664    0.6422 C   0  0
   16.3432  -14.9697   -0.4380 C   0  0  1  0  0  0
   15.8143  -16.2350   -1.2837 C   0  0
   15.2331  -13.9818   -0.0317 C   0  0
   13.8777  -14.6700   -0.1010 C   0  0
   12.3609  -16.5925   -1.6946 C   0  0
   10.7946  -20.0222    1.1949 C   0  0
   11.1893  -19.7626   -1.2732 C   0  0
   12.2268  -20.7463   -1.2340 O   0  0
   16.2093  -17.0135    0.9092 C   0  0
   16.7143  -15.6480    0.8231 C   0  0
   17.4513  -15.0822    1.7625 C   0  0
   12.1465  -17.9276    1.6049 H   0  0
   11.5768  -15.5447    1.5615 H   0  0
   10.9248  -15.1270   -0.0416 H   0  0
   10.0104  -17.2978    1.8952 H   0  0
    9.0344  -16.2669    0.8210 H   0  0
    9.9144  -17.5747   -1.1232 H   0  0
    8.9288  -18.5345    0.0068 H   0  0
   14.1206  -18.5322   -1.4250 H   0  0
   15.5314  -19.1292   -0.5180 H   0  0
   13.8269  -16.1397    1.4929 H   0  0
   13.5269  -20.0304    0.5232 H   0  0
   14.2065  -18.7928    1.6076 H   0  0
   17.1908  -14.4747   -0.9119 H   0  0
   15.1373  -15.9356   -2.0838 H   0  0
   16.6355  -16.8179   -1.7008 H   0  0
   15.4115  -13.6365    0.9867 H   0  0
   15.2410  -13.1297   -0.7114 H   0  0
   13.1796  -14.0836    0.4964 H   0  0
   13.5585  -14.6647   -1.1431 H   0  0
   13.2007  -17.1216   -2.1449 H   0  0
   12.3968  -15.5421   -1.9837 H   0  0
   11.4263  -17.0328   -2.0423 H   0  0
    9.9264  -20.6228    0.9238 H   0  0
   10.5985  -19.5042    2.1337 H   0  0
   11.6623  -20.6713    1.3129 H   0  0
   11.4090  -19.0488   -2.0671 H   0  0
   10.2407  -20.2576   -1.4812 H   0  0
   13.1464  -20.2783   -1.0394 H   0  0
   15.8203  -17.2301    1.9041 H   0  0
   16.9823  -17.7386    0.6549 H   0  0
   17.7119  -15.6412    2.6612 H   0  0
   17.7986  -14.0565    1.6387 H   0  0
  1  3  1  0
  2  4  1  0
  3  5  1  0
  4  6  1  0
  5  6  1  0
  7  8  1  0
  8 10  1  0
  9  1  1  0
 10  2  1  0
  1  2  1  0
 11 12  1  0
 11 13  1  0
 12  7  1  0
 13 14  1  0
  7  9  1  0
 14  9  1  0
  1 15  1  0
  4 16  1  0
 17 18  1  0
  4 17  1  0
  7 19  1  0
 20 19  1  0
 20 11  1  0
 20 21  2  0
  2 22  1  0
  3 23  1  0
  3 24  1  0
  5 25  1  0
  5 26  1  0
  6 27  1  0
  6 28  1  0
  8 29  1  0
  8 30  1  0
  9 31  1  0
 10 32  1  0
 10 33  1  0
 11 34  1  0
 12 35  1  0
 12 36  1  0
 13 37  1  0
 13 38  1  0
 14 39  1  0
 14 40  1  0
 15 41  1  0
 15 42  1  0
 15 43  1  0
 16 44  1  0
 16 45  1  0
 16 46  1  0
 17 47  1  0
 17 48  1  0
 18 49  1  0
 19 50  1  0
 19 51  1  0
 21 52  1  0
 21 53  1  0
M  END
> <Name>
RB2007a_3

> <Clean Energy>
128.788498

$$$$
RB2007a_4
  SciTegic12132405553D

 58 61  0  0  0  0            999 V2000
   12.4951  -16.8468   -0.1717 C   0  0  1  0  0  0
   12.4209  -18.1229    0.7610 C   0  0  1  0  0  0
   11.1910  -16.0419    0.2675 C   0  0
   11.2321  -19.1353    0.4771 C   0  0  2  0  0  0
    9.8819  -16.9557    0.4897 C   0  0
   10.0489  -18.3182   -0.1743 C   0  0
   15.1275  -17.0074    0.0856 C   0  0  2  0  0  0
   14.7993  -18.5506    0.0786 C   0  0
   13.7820  -16.1477    0.3521 C   0  0  1  0  0  0
   13.7933  -18.8317    1.1736 C   0  0
   16.3892  -15.1096   -0.6692 C   0  0  1  0  0  0
   15.7890  -16.4848   -1.1974 C   0  0
   15.3567  -14.2042    0.1138 C   0  0
   13.9576  -14.7002   -0.1974 C   0  0
   12.5448  -17.0380   -1.7699 C   0  0
   10.8250  -19.7921    1.8067 C   0  0
   11.5830  -20.2307   -0.5154 C   0  0
   11.2179  -21.5462   -0.2120 O   0  0
   16.1676  -16.5898    1.1758 C   0  0
   17.2239  -15.8003    0.3735 C   0  0  2  0  0  0
   12.2085  -19.9898   -1.5418 O   0  0
   11.6728  -22.4255   -1.2458 C   0  0
   18.0750  -14.8810    1.2637 C   0  0
   19.0024  -14.1636    0.4452 O   0  0
   17.8771  -16.4986   -0.1714 H   0  0
   12.1101  -17.6824    1.7083 H   0  0
   11.4086  -15.5265    1.2030 H   0  0
   10.9665  -15.3094   -0.5078 H   0  0
    9.7232  -17.0972    1.5588 H   0  0
    9.0177  -16.4518    0.0571 H   0  0
   10.2596  -18.1727   -1.2338 H   0  0
    9.1236  -18.8832   -0.0615 H   0  0
   14.3802  -18.8330   -0.8871 H   0  0
   15.7101  -19.1210    0.2608 H   0  0
   13.6740  -16.0616    1.4334 H   0  0
   13.6417  -19.9066    1.2720 H   0  0
   14.1511  -18.4265    2.1201 H   0  0
   16.9732  -14.5688   -1.4138 H   0  0
   15.0592  -16.3273   -1.9917 H   0  0
   16.5712  -17.1569   -1.5501 H   0  0
   15.5430  -14.2751    1.1854 H   0  0
   15.4597  -13.1672   -0.2056 H   0  0
   13.2267  -14.0425    0.2730 H   0  0
   13.8048  -14.7010   -1.2766 H   0  0
   13.4442  -17.5900   -2.0425 H   0  0
   12.5583  -16.0610   -2.2530 H   0  0
   11.6655  -17.5927   -2.0975 H   0  0
   10.0081  -20.4921    1.6317 H   0  0
   10.5000  -19.0233    2.5079 H   0  0
   11.6779  -20.3271    2.2244 H   0  0
   15.7049  -15.9610    1.9365 H   0  0
   16.6111  -17.4661    1.6485 H   0  0
   11.3860  -23.4492   -1.0050 H   0  0
   12.7580  -22.3621   -1.3259 H   0  0
   11.2212  -22.1359   -2.1946 H   0  0
   17.4272  -14.1760    1.7847 H   0  0
   18.6200  -15.4812    1.9922 H   0  0
   19.6253  -14.8435   -0.0572 H   0  0
  1  3  1  0
  2  4  1  0
  3  5  1  0
  4  6  1  0
  5  6  1  0
  7  8  1  0
  8 10  1  0
  9  1  1  0
 10  2  1  0
  1  2  1  0
 11 12  1  0
 11 13  1  0
 12  7  1  0
 13 14  1  0
  7  9  1  0
 14  9  1  0
  1 15  1  0
  4 16  1  0
 17 18  1  0
  4 17  1  0
  7 19  1  0
 20 19  1  0
 20 11  1  0
 17 21  2  0
 18 22  1  0
 20 23  1  0
 23 24  1  0
 20 25  1  0
  2 26  1  0
  3 27  1  0
  3 28  1  0
  5 29  1  0
  5 30  1  0
  6 31  1  0
  6 32  1  0
  8 33  1  0
  8 34  1  0
  9 35  1  0
 10 36  1  0
 10 37  1  0
 11 38  1  0
 12 39  1  0
 12 40  1  0
 13 41  1  0
 13 42  1  0
 14 43  1  0
 14 44  1  0
 15 45  1  0
 15 46  1  0
 15 47  1  0
 16 48  1  0
 16 49  1  0
 16 50  1  0
 19 51  1  0
 19 52  1  0
 22 53  1  0
 22 54  1  0
 22 55  1  0
 23 56  1  0
 23 57  1  0
 24 58  1  0
M  END
> <Name>
RB2007a_4

> <Clean Energy>
149.884796

$$$$
RB2007a_5
  SciTegic12132405553D

 43 43  0  0  0  0            999 V2000
   15.3835  -18.0621   -0.2919 C   0  0  1  0  0  0
   15.2562  -16.5635    0.2320 C   0  0  1  0  0  0
   16.3973  -15.7545   -0.3777 C   0  0  1  0  0  0
   16.2644  -14.3226    0.1498 C   0  0
   17.6699  -16.2867    0.0110 O   0  0
   17.8620  -17.6251   -0.4681 C   0  0  2  0  0  0
   16.7674  -18.5972    0.1522 C   0  0  2  0  0  0
   19.7058  -18.1127   -0.0656 Br  0  0
   17.8927  -20.7321    0.2306 C   0  0
   18.5513  -20.2974    1.1751 O   0  0
   16.8830  -19.9572   -0.3692 O   0  0
   18.1378  -22.1311   -0.2627 C   0  0
   12.9341  -16.1501    0.6724 C   0  0
   13.0461  -16.8995    1.6461 O   0  0
   14.0311  -15.8800   -0.1524 O   0  0
   11.6162  -15.4881    0.3792 C   0  0
   13.2124  -19.1221   -0.5630 C   0  0
   12.2886  -19.8307   -0.1440 O   0  0
   14.3644  -18.9463    0.2540 O   0  0
   13.1029  -18.5148   -1.9451 C   0  0
   17.0743  -12.1943    0.0483 C   0  0
   16.0890  -11.9306    0.7483 O   0  0
   17.2975  -13.5002   -0.3729 O   0  0
   18.0196  -11.1034   -0.3545 C   0  0
   15.3246  -18.0709   -1.3803 H   0  0
   15.3483  -16.5531    1.3181 H   0  0
   16.3123  -15.7571   -1.4644 H   0  0
   15.2979  -13.9183   -0.1510 H   0  0
   16.3314  -14.3339    1.2377 H   0  0
   17.7392  -17.6204   -1.5512 H   0  0
   16.8393  -18.6021    1.2398 H   0  0
   17.4701  -22.3448   -1.0973 H   0  0
   17.9487  -22.8396    0.5438 H   0  0
   19.1724  -22.2245   -0.5927 H   0  0
   11.7106  -14.8686   -0.5126 H   0  0
   11.3261  -14.8646    1.2250 H   0  0
   10.8552  -16.2505    0.2125 H   0  0
   13.9949  -17.9245   -2.1548 H   0  0
   12.2236  -17.8723   -1.9916 H   0  0
   13.0114  -19.3095   -2.6855 H   0  0
   18.8201  -11.5224   -0.9642 H   0  0
   18.4455  -10.6433    0.5371 H   0  0
   17.4817  -10.3500   -0.9300 H   0  0
  1  2  1  0
  2  3  1  0
  3  4  1  0
  3  5  1  0
  5  6  1  0
  6  7  1  0
  7  1  1  0
  6  8  1  0
  9 10  2  0
  9 11  1  0
  9 12  1  0
  7 11  1  0
 13 14  2  0
 13 15  1  0
 13 16  1  0
  2 15  1  0
 17 18  2  0
 17 19  1  0
 17 20  1  0
  1 19  1  0
 21 22  2  0
 21 23  1  0
 21 24  1  0
  4 23  1  0
  1 25  1  0
  2 26  1  0
  3 27  1  0
  4 28  1  0
  4 29  1  0
  6 30  1  0
  7 31  1  0
 12 32  1  0
 12 33  1  0
 12 34  1  0
 16 35  1  0
 16 36  1  0
 16 37  1  0
 20 38  1  0
 20 39  1  0
 20 40  1  0
 24 41  1  0
 24 42  1  0
 24 43  1  0
M  END
> <Name>
RB2007a_5

> <Clean Energy>
13.107834

$$$$
RB2007a_6
  SciTegic12132405553D

 94 99  0  0  0  0            999 V2000
   13.3972  -17.0143   -0.2604 C   0  0  1  0  0  0
   13.5336  -18.2641    0.6861 C   0  0  1  0  0  0
   11.8060  -16.8676   -0.3352 C   0  0
   13.1912  -19.6643   -0.0754 C   0  0  2  0  0  0
   11.0337  -18.3141   -0.4159 C   0  0
   11.9450  -19.4031   -1.0351 C   0  0
   15.7895  -16.2449    0.6611 C   0  0  2  0  0  0
   15.9503  -17.7486    0.8663 C   0  0
   14.1818  -15.8611    0.5033 C   0  0  1  0  0  0
   14.7975  -18.2517    1.6612 C   0  0
   16.5311  -14.1014   -0.1431 C   0  0  1  0  0  0
   16.6000  -15.6694   -0.5040 C   0  0
   15.0726  -13.5177   -0.0335 C   0  0
   14.0266  -14.5707   -0.3245 C   0  0
   13.9927  -17.0919   -1.7559 C   0  0
   12.8316  -20.6767    1.0293 C   0  0
   14.4347  -20.2800   -0.9526 C   0  0
   16.5657  -15.5442    1.8139 C   0  0
   16.8832  -14.2273    1.2623 C   0  0
   15.5507  -20.5054   -0.0285 O   0  0
   16.9576  -20.7336   -0.4992 C   0  0  2  0  0  0
   17.7573  -20.8299    0.7100 O   0  0
   17.6858  -19.6018   -1.1527 O   0  0
   17.0575  -22.0132   -1.3656 C   0  0
   19.0798  -20.9015    0.2190 C   0  0  1  0  0  0
   19.1092  -20.0755   -1.0577 C   0  0  2  0  0  0
   20.2498  -18.9891   -0.9650 C   0  0  2  0  0  0
   21.6521  -19.7938   -0.7052 C   0  0  2  0  0  0
   21.3547  -20.9080    0.4282 C   0  0  2  0  0  0
   20.1679  -20.6464    1.1539 O   0  0
   20.6432  -16.7991    0.0574 C   0  0
   20.5687  -16.0044    1.0033 O   0  0
   20.0024  -18.1079    0.1744 O   0  0
   21.3448  -16.3314   -1.2174 C   0  0
   23.9780  -19.1578   -0.6530 C   0  0
   24.2104  -20.1870   -1.2586 O   0  0
   22.6441  -18.7884   -0.3159 O   0  0
   25.1131  -18.2412   -0.2617 C   0  0
   22.5363  -21.2856    1.3963 C   0  0
   23.6854  -22.9326    0.1443 C   0  0
   22.6543  -23.6142    0.2060 O   0  0
   23.7539  -21.6772    0.7457 O   0  0
   24.8932  -23.4686   -0.5658 C   0  0
   17.7770  -13.4252    1.8314 C   0  0
   12.6941  -18.1458    1.3712 H   0  0
   11.4634  -16.3398    0.5548 H   0  0
   11.5518  -16.2878   -1.2226 H   0  0
   10.7473  -18.6205    0.5901 H   0  0
   10.1406  -18.2062   -1.0315 H   0  0
   12.3011  -19.0675   -2.0091 H   0  0
   11.3781  -20.3265   -1.1534 H   0  0
   15.9737  -18.2495   -0.1016 H   0  0
   16.8787  -17.9477    1.4016 H   0  0
   13.7438  -15.7150    1.4907 H   0  0
   15.0024  -19.2596    2.0222 H   0  0
   14.6106  -17.5926    2.5090 H   0  0
   17.2169  -13.4810   -0.7201 H   0  0
   16.1343  -15.8840   -1.4659 H   0  0
   17.6252  -16.0395   -0.5056 H   0  0
   14.9194  -13.1370    0.9763 H   0  0
   14.9632  -12.7034   -0.7498 H   0  0
   13.0455  -14.1453   -0.1135 H   0  0
   14.0900  -14.8327   -1.3807 H   0  0
   15.0771  -17.1920   -1.7109 H   0  0
   13.7345  -16.1822   -2.2980 H   0  0
   13.5699  -17.9542   -2.2716 H   0  0
   12.5915  -21.6388    0.5769 H   0  0
   11.9694  -20.3137    1.5889 H   0  0
   13.6790  -20.7947    1.7046 H   0  0
   14.1359  -21.2217   -1.4131 H   0  0
   14.7298  -19.5733   -1.7282 H   0  0
   15.9428  -15.4536    2.7038 H   0  0
   17.4749  -16.0924    2.0605 H   0  0
   18.0881  -22.1521   -1.6919 H   0  0
   16.4112  -21.9135   -2.2377 H   0  0
   16.7436  -22.8759   -0.7779 H   0  0
   19.2123  -21.9345   -0.1027 H   0  0
   19.3182  -20.7353   -1.8998 H   0  0
   20.3050  -18.4132   -1.8887 H   0  0
   21.9691  -20.2837   -1.6259 H   0  0
   21.1462  -21.8223   -0.1273 H   0  0
   21.3317  -17.1336   -1.9552 H   0  0
   22.3769  -16.0661   -0.9883 H   0  0
   20.8269  -15.4605   -1.6192 H   0  0
   24.7158  -17.3763    0.2695 H   0  0
   25.6367  -17.9076   -1.1577 H   0  0
   25.8071  -18.7773    0.3857 H   0  0
   22.7510  -20.4187    2.0213 H   0  0
   22.2072  -22.1139    2.0238 H   0  0
   25.6985  -22.7356   -0.5181 H   0  0
   24.6443  -23.6666   -1.6084 H   0  0
   25.2158  -24.3936   -0.0877 H   0  0
   18.2970  -13.7429    2.7352 H   0  0
   17.9902  -12.4497    1.3944 H   0  0
  1  3  1  0
  2  4  1  0
  3  5  1  0
  4  6  1  0
  5  6  1  0
  7  8  1  0
  8 10  1  0
  9  1  1  0
 10  2  1  0
  1  2  1  0
 11 12  1  0
 11 13  1  0
 12  7  1  0
 13 14  1  0
  7  9  1  0
 14  9  1  0
  1 15  1  0
  4 16  1  0
  4 17  1  0
  7 18  1  0
 19 18  1  0
 19 11  1  0
 17 20  1  0
 20 21  1  0
 21 22  1  0
 21 23  1  0
 21 24  1  0
 22 25  1  0
 25 26  1  0
 26 23  1  0
 26 27  1  0
 27 28  1  0
 28 29  1  0
 29 30  1  0
 25 30  1  0
 31 32  2  0
 31 33  1  0
 31 34  1  0
 27 33  1  0
 35 36  2  0
 35 37  1  0
 35 38  1  0
 28 37  1  0
 29 39  1  0
 40 41  2  0
 40 42  1  0
 40 43  1  0
 39 42  1  0
 19 44  2  0
  2 45  1  0
  3 46  1  0
  3 47  1  0
  5 48  1  0
  5 49  1  0
  6 50  1  0
  6 51  1  0
  8 52  1  0
  8 53  1  0
  9 54  1  0
 10 55  1  0
 10 56  1  0
 11 57  1  0
 12 58  1  0
 12 59  1  0
 13 60  1  0
 13 61  1  0
 14 62  1  0
 14 63  1  0
 15 64  1  0
 15 65  1  0
 15 66  1  0
 16 67  1  0
 16 68  1  0
 16 69  1  0
 17 70  1  0
 17 71  1  0
 18 72  1  0
 18 73  1  0
 24 74  1  0
 24 75  1  0
 24 76  1  0
 25 77  1  0
 26 78  1  0
 27 79  1  0
 28 80  1  0
 29 81  1  0
 34 82  1  0
 34 83  1  0
 34 84  1  0
 38 85  1  0
 38 86  1  0
 38 87  1  0
 39 88  1  0
 39 89  1  0
 43 90  1  0
 43 91  1  0
 43 92  1  0
 44 93  1  0
 44 94  1  0
M  END
> <Name>
RB2007a_6

> <Clean Energy>
226.757507

$$$$
RB2007a_7
  SciTegic12132405553D

 58 61  0  0  0  0            999 V2000
   12.5307  -16.6627   -0.1490 C   0  0  1  0  0  0
   12.5249  -17.8943    0.8353 C   0  0  1  0  0  0
   11.0671  -16.0581    0.0770 C   0  0
   11.5715  -19.1083    0.3333 C   0  0  2  0  0  0
    9.9105  -17.1821    0.2723 C   0  0
   10.3142  -18.4892   -0.3978 C   0  0
   15.1347  -16.4625    0.2901 C   0  0  2  0  0  0
   14.9893  -18.0199    0.3868 C   0  0
   13.6690  -15.7343    0.4058 C   0  0  1  0  0  0
   13.9448  -18.3123    1.4368 C   0  0
   16.1646  -14.3976   -0.4328 C   0  0  1  0  0  0
   15.9212  -15.9173   -0.9309 C   0  0
   14.8714  -13.5451   -0.3448 C   0  0
   13.6416  -14.4333   -0.4307 C   0  0
   12.7962  -16.9218   -1.7247 C   0  0
   11.1702  -19.9138    1.5821 C   0  0
   12.2455  -20.1047   -0.6850 C   0  0
   16.1110  -16.0036    1.4097 C   0  0
   16.4919  -14.6724    0.9728 C   0  0
   17.2413  -13.8570    1.7087 C   0  0
   14.3108  -21.2132   -0.9521 C   0  0
   14.1751  -20.9875   -2.1672 O   0  0
   13.3530  -20.7644   -0.0437 O   0  0
   15.5459  -21.9054   -0.4530 C   0  0
   11.9937  -17.5096    1.7059 H   0  0
   11.0894  -15.4310    0.9683 H   0  0
   10.8103  -15.4494   -0.7899 H   0  0
    9.7582  -17.3578    1.3373 H   0  0
    8.9831  -16.8226   -0.1734 H   0  0
   10.5625  -18.2973   -1.4417 H   0  0
    9.4836  -19.1930   -0.3448 H   0  0
   14.6740  -18.4248   -0.5748 H   0  0
   15.9415  -18.4656    0.6747 H   0  0
   13.4648  -15.4969    1.4499 H   0  0
   13.9478  -19.3753    1.6780 H   0  0
   14.1515  -17.7343    2.3376 H   0  0
   16.9707  -13.8965   -0.9687 H   0  0
   15.3298  -15.9556   -1.8457 H   0  0
   16.8596  -16.4511   -1.0816 H   0  0
   14.8600  -13.0076    0.6034 H   0  0
   14.8561  -12.8309   -1.1681 H   0  0
   12.7852  -13.8455   -0.1003 H   0  0
   13.5088  -14.7144   -1.4754 H   0  0
   13.7961  -17.3332   -1.8624 H   0  0
   12.7135  -15.9800   -2.2672 H   0  0
   12.0580  -17.6268   -2.1069 H   0  0
   10.5263  -20.7429    1.2889 H   0  0
   10.6343  -19.2661    2.2761 H   0  0
   12.0654  -20.3034    2.0669 H   0  0
   11.5149  -20.8478   -1.0047 H   0  0
   12.6046  -19.5508   -1.5524 H   0  0
   15.6116  -15.9718    2.3780 H   0  0
   16.9782  -16.6612    1.4689 H   0  0
   17.5979  -14.1790    2.6871 H   0  0
   17.4990  -12.8665    1.3336 H   0  0
   15.4885  -22.0160    0.6298 H   0  0
   16.4241  -21.3136   -0.7113 H   0  0
   15.6230  -22.8898   -0.9147 H   0  0
  1  3  1  0
  2  4  1  0
  3  5  1  0
  4  6  1  0
  5  6  1  0
  7  8  1  0
  8 10  1  0
  9  1  1  0
 10  2  1  0
  1  2  1  0
 11 12  1  0
 11 13  1  0
 12  7  1  0
 13 14  1  0
  7  9  1  0
 14  9  1  0
  1 15  1  0
  4 16  1  0
  4 17  1  0
  7 18  1  0
 19 18  1  0
 19 11  1  0
 19 20  2  0
 21 22  2  0
 21 23  1  0
 21 24  1  0
 17 23  1  0
  2 25  1  0
  3 26  1  0
  3 27  1  0
  5 28  1  0
  5 29  1  0
  6 30  1  0
  6 31  1  0
  8 32  1  0
  8 33  1  0
  9 34  1  0
 10 35  1  0
 10 36  1  0
 11 37  1  0
 12 38  1  0
 12 39  1  0
 13 40  1  0
 13 41  1  0
 14 42  1  0
 14 43  1  0
 15 44  1  0
 15 45  1  0
 15 46  1  0
 16 47  1  0
 16 48  1  0
 16 49  1  0
 17 50  1  0
 17 51  1  0
 18 52  1  0
 18 53  1  0
 20 54  1  0
 20 55  1  0
 24 56  1  0
 24 57  1  0
 24 58  1  0
M  END
> <Name>
RB2007a_7

> <Clean Energy>
132.4823

$$$$
RB2007a_8a/b-a
  SciTegic12132405553D

 94 98  0  0  0  0            999 V2000
   13.2228  -17.4055    0.3898 C   0  0  1  0  0  0
   14.3046  -18.7241    0.3152 C   0  0  2  0  0  0
   11.9442  -17.9575    0.9183 C   0  0
   13.6536  -20.2513   -0.0441 C   0  0  2  0  0  0
   11.3623  -19.1102   -0.1425 C   0  0
   12.5348  -20.0002   -0.9414 C   0  0
   15.4224  -16.1049    1.3671 C   0  0  2  0  0  0
   15.9532  -17.5183    1.8353 C   0  0
   13.8837  -16.2221    1.5257 C   0  0  1  0  0  0
   15.0531  -18.8056    1.5790 C   0  0
   15.3641  -14.1077    0.0910 C   0  0  1  0  0  0
   15.8163  -15.5802   -0.0249 C   0  0
   13.7859  -13.9619    0.2311 C   0  0
   13.3022  -14.7694    1.4997 C   0  0
   12.8785  -16.8075   -1.1252 C   0  0
   13.1254  -21.1099    1.1978 C   0  0
   14.8032  -21.0484   -0.8154 C   0  0
   16.1029  -14.9609    2.1212 C   0  0
   16.0626  -13.8354    1.3879 C   0  0
   15.9539  -21.2215   -0.0477 O   0  0
   16.6626  -12.5249    1.7731 C   0  0
   17.3124  -21.1230   -0.7055 C   0  0  1  0  0  0
   17.8424  -19.5901   -0.8684 C   0  0  1  0  0  0
   19.3086  -19.5352   -1.1508 C   0  0  2  0  0  0
   20.1275  -20.3348   -0.0940 C   0  0  1  0  0  0
   19.5500  -21.8270   -0.1949 C   0  0  2  0  0  0
   18.1584  -21.7924    0.2456 O   0  0
   20.7445  -17.4338   -1.6275 C   0  0
   20.8193  -16.2073   -1.4922 O   0  0
   19.5602  -18.0715   -1.1343 O   0  0
   21.8572  -18.1169   -2.3757 C   0  0
   22.4244  -20.3906    0.6452 C   0  0
   22.0037  -20.6724    1.7731 O   0  0
   21.5288  -20.1714   -0.4285 O   0  0
   23.8968  -20.2380    0.4217 C   0  0
   20.2978  -22.9029    0.6157 C   0  0
   22.3876  -23.9998    0.5428 C   0  0
   21.9551  -24.7474    1.4258 O   0  0
   21.6057  -22.9815    0.0313 O   0  0
   23.7624  -24.2085   -0.0331 C   0  0
   16.2857  -18.2711   -2.6910 C   0  0
   15.1584  -18.6316   -2.4112 O   0  0
   17.4808  -18.7082   -2.0639 O   0  0
   16.4275  -17.3021   -3.8102 C   0  0
   15.0002  -18.4211   -0.4230 H   0  0
   12.2199  -18.4278    1.8684 H   0  0
   11.1671  -17.2031    1.1010 H   0  0
   10.7020  -19.7471    0.4623 H   0  0
   10.7647  -18.6554   -0.9458 H   0  0
   12.9668  -19.4188   -1.7547 H   0  0
   12.0859  -20.9122   -1.3564 H   0  0
   16.9894  -17.6072    1.4850 H   0  0
   15.9560  -17.5367    2.9330 H   0  0
   13.7466  -16.6220    2.5400 H   0  0
   15.7271  -19.6658    1.6370 H   0  0
   14.2871  -18.8980    2.3619 H   0  0
   15.7060  -13.4893   -0.7496 H   0  0
   15.4378  -16.1364   -0.8591 H   0  0
   16.9136  -15.5715   -0.0813 H   0  0
   13.5011  -12.9108    0.3655 H   0  0
   13.3414  -14.3256   -0.6798 H   0  0
   13.7169  -14.2440    2.3619 H   0  0
   12.2093  -14.7688    1.5984 H   0  0
   13.7717  -16.4139   -1.5842 H   0  0
   12.1448  -16.0000   -1.0243 H   0  0
   12.4783  -17.5353   -1.8069 H   0  0
   12.7198  -22.0594    0.8243 H   0  0
   12.3496  -20.5901    1.7620 H   0  0
   13.9614  -21.3230    1.8765 H   0  0
   14.4447  -22.0238   -1.1697 H   0  0
   15.0721  -20.4675   -1.6571 H   0  0
   16.5551  -15.0507    3.0746 H   0  0
   16.8366  -11.9076    0.8794 H   0  0
   17.5857  -12.6943    2.3461 H   0  0
   15.9552  -12.0061    2.4310 H   0  0
   17.4000  -21.6940   -1.6387 H   0  0
   17.6852  -19.0918    0.0935 H   0  0
   19.4885  -19.9631   -2.1445 H   0  0
   19.9696  -19.9334    0.9169 H   0  0
   19.6060  -22.1709   -1.2374 H   0  0
   21.5393  -19.0888   -2.7685 H   0  0
   22.6870  -18.2714   -1.6700 H   0  0
   22.2278  -17.4522   -3.1671 H   0  0
   24.0961  -19.8005   -0.5673 H   0  0
   24.3627  -21.2306    0.4932 H   0  0
   24.3263  -19.6289    1.2300 H   0  0
   20.3346  -22.6546    1.6841 H   0  0
   19.7935  -23.8690    0.4729 H   0  0
   24.0061  -23.4089   -0.7536 H   0  0
   23.7912  -25.1893   -0.5310 H   0  0
   24.4968  -24.2475    0.7809 H   0  0
   17.4774  -17.2262   -4.1267 H   0  0
   16.0768  -16.3210   -3.4538 H   0  0
   15.7671  -17.5954   -4.6371 H   0  0
  1  3  1  0
  2  4  1  0
  3  5  1  0
  4  6  1  0
  5  6  1  0
  7  8  1  0
  8 10  1  0
  9  1  1  0
 10  2  1  0
  1  2  1  0
 11 12  1  0
 11 13  1  0
 12  7  1  0
 13 14  1  0
  7  9  1  0
 14  9  1  0
  1 15  1  0
  4 16  1  0
  4 17  1  0
  7 18  1  0
 19 18  2  0
 19 11  1  0
 17 20  1  0
 19 21  1  0
 22 23  1  0
 23 24  1  0
 24 25  1  0
 25 26  1  0
 26 27  1  0
 22 27  1  0
 28 29  2  0
 28 30  1  0
 28 31  1  0
 24 30  1  0
 32 33  2  0
 32 34  1  0
 32 35  1  0
 25 34  1  0
 26 36  1  0
 37 38  2  0
 37 39  1  0
 37 40  1  0
 36 39  1  0
 20 22  1  0
 41 42  2  0
 41 43  1  0
 41 44  1  0
 23 43  1  0
  2 45  1  0
  3 46  1  0
  3 47  1  0
  5 48  1  0
  5 49  1  0
  6 50  1  0
  6 51  1  0
  8 52  1  0
  8 53  1  0
  9 54  1  0
 10 55  1  0
 10 56  1  0
 11 57  1  0
 12 58  1  0
 12 59  1  0
 13 60  1  0
 13 61  1  0
 14 62  1  0
 14 63  1  0
 15 64  1  0
 15 65  1  0
 15 66  1  0
 16 67  1  0
 16 68  1  0
 16 69  1  0
 17 70  1  0
 17 71  1  0
 18 72  1  0
 21 73  1  0
 21 74  1  0
 21 75  1  0
 22 76  1  0
 23 77  1  0
 24 78  1  0
 25 79  1  0
 26 80  1  0
 31 81  1  0
 31 82  1  0
 31 83  1  0
 35 84  1  0
 35 85  1  0
 35 86  1  0
 36 87  1  0
 36 88  1  0
 40 89  1  0
 40 90  1  0
 40 91  1  0
 44 92  1  0
 44 93  1  0
 44 94  1  0
M  END
> <Name>
RB2007a_8a/b-a

> <Clean Energy>
335.923187

$$$$
RB2007a_9
  SciTegic12132405553D

 79 83  0  0  0  0            999 V2000
   13.0582  -16.9354   -0.0207 C   0  0  1  0  0  0
   13.8671  -18.2690    0.4082 C   0  0  2  0  0  0
   11.5722  -17.1579    0.2062 C   0  0
   13.2002  -19.7241    0.1535 C   0  0  2  0  0  0
   11.1085  -18.4637   -0.6924 C   0  0
   12.2651  -19.6011   -1.0417 C   0  0
   15.2574  -15.7698    1.1115 C   0  0  2  0  0  0
   15.3217  -17.0410    2.0595 C   0  0
   13.6829  -15.6249    0.8038 C   0  0  1  0  0  0
   14.3241  -18.2290    1.8198 C   0  0
   15.7930  -14.0085   -0.4042 C   0  0  1  0  0  0
   15.9281  -15.6421   -0.2239 C   0  0
   14.3605  -13.4050   -0.0308 C   0  0
   13.2955  -14.4444   -0.1249 C   0  0
   13.1951  -16.6812   -1.6077 C   0  0
   12.2901  -20.1822    1.3440 C   0  0
   14.3675  -20.8439   -0.0967 C   0  0
   16.1284  -14.6904    1.8776 C   0  0
   16.3929  -13.6664    0.8555 C   0  0
   15.2845  -21.1284    1.0372 O   0  0
   17.3006  -12.7044    1.0019 C   0  0
   16.8069  -21.0091    0.8540 C   0  0  2  0  0  0
   17.2864  -19.5451    0.6866 C   0  0  1  0  0  0
   18.8095  -19.4889    0.8170 C   0  0  1  0  0  0
   19.4844  -20.3406   -0.2209 C   0  0  2  0  0  0
   18.9613  -21.8005   -0.0232 C   0  0  1  0  0  0
   17.4501  -21.8697   -0.1640 O   0  0
   19.2379  -18.1302    0.7366 O   0  0
   20.9006  -20.2613   -0.0375 O   0  0
   19.6685  -22.7129   -1.0554 C   0  0
   21.0967  -22.6490   -0.8650 O   0  0
   16.8105  -19.2761   -1.8371 C   0  0
   17.2904  -20.3598   -2.1351 O   0  0
   16.7284  -18.8002   -0.4891 O   0  0
   16.2272  -18.4234   -2.9238 C   0  0
   14.7778  -18.2598   -0.1906 H   0  0
   11.3842  -17.3503    1.2625 H   0  0
   11.0141  -16.2759   -0.1079 H   0  0
   10.3090  -18.9671   -0.1488 H   0  0
   10.7233  -18.0878   -1.6403 H   0  0
   12.8309  -19.2918   -1.9205 H   0  0
   11.7885  -20.5621   -1.2356 H   0  0
   16.3287  -17.4496    1.9756 H   0  0
   15.1563  -16.6873    3.0772 H   0  0
   13.1494  -15.5179    1.7483 H   0  0
   14.8248  -19.1674    2.0582 H   0  0
   13.4585  -18.1031    2.4703 H   0  0
   16.2708  -13.5867   -1.2884 H   0  0
   15.3975  -16.1873   -1.0045 H   0  0
   16.9678  -15.9681   -0.1948 H   0  0
   14.3919  -13.0198    0.9883 H   0  0
   14.1265  -12.5932   -0.7196 H   0  0
   12.3413  -14.0239    0.1924 H   0  0
   13.2141  -14.7963   -1.1534 H   0  0
   14.2417  -16.5107   -1.8599 H   0  0
   12.6073  -15.8072   -1.8883 H   0  0
   12.8290  -17.5537   -2.1488 H   0  0
   11.8680  -21.1625    1.1230 H   0  0
   11.4832  -19.4627    1.4830 H   0  0
   12.8852  -20.2406    2.2554 H   0  0
   13.8743  -21.7788   -0.3629 H   0  0
   14.9763  -20.5025   -0.9339 H   0  0
   15.5745  -14.2683    2.7161 H   0  0
   17.0590  -15.1277    2.2394 H   0  0
   17.8927  -12.6483    1.9154 H   0  0
   17.4521  -11.9727    0.2084 H   0  0
   17.2298  -21.3354    1.8042 H   0  0
   16.9064  -19.0195    1.5627 H   0  0
   19.0807  -19.8730    1.8004 H   0  0
   19.2209  -19.9860   -1.2174 H   0  0
   19.2325  -22.1340    0.9785 H   0  0
   18.9486  -17.7257   -0.1882 H   0  0
   21.2122  -19.2639   -0.1405 H   0  0
   19.3311  -23.7406   -0.9210 H   0  0
   19.4223  -22.3780   -2.0630 H   0  0
   21.4236  -21.6596   -0.9947 H   0  0
   15.8445  -17.4978   -2.4941 H   0  0
   15.4135  -18.9609   -3.4108 H   0  0
   16.9990  -18.1909   -3.6576 H   0  0
  1  3  1  0
  2  4  1  0
  3  5  1  0
  4  6  1  0
  5  6  1  0
  7  8  1  0
  8 10  1  0
  9  1  1  0
 10  2  1  0
  1  2  1  0
 11 12  1  0
 11 13  1  0
 12  7  1  0
 13 14  1  0
  7  9  1  0
 14  9  1  0
  1 15  1  0
  4 16  1  0
  4 17  1  0
  7 18  1  0
 19 18  1  0
 19 11  1  0
 17 20  1  0
 19 21  2  0
 22 23  1  0
 23 24  1  0
 24 25  1  0
 25 26  1  0
 26 27  1  0
 22 27  1  0
 24 28  1  0
 25 29  1  0
 26 30  1  0
 30 31  1  0
 20 22  1  0
 32 33  2  0
 32 34  1  0
 32 35  1  0
 23 34  1  0
  2 36  1  0
  3 37  1  0
  3 38  1  0
  5 39  1  0
  5 40  1  0
  6 41  1  0
  6 42  1  0
  8 43  1  0
  8 44  1  0
  9 45  1  0
 10 46  1  0
 10 47  1  0
 11 48  1  0
 12 49  1  0
 12 50  1  0
 13 51  1  0
 13 52  1  0
 14 53  1  0
 14 54  1  0
 15 55  1  0
 15 56  1  0
 15 57  1  0
 16 58  1  0
 16 59  1  0
 16 60  1  0
 17 61  1  0
 17 62  1  0
 18 63  1  0
 18 64  1  0
 21 65  1  0
 21 66  1  0
 22 67  1  0
 23 68  1  0
 24 69  1  0
 25 70  1  0
 26 71  1  0
 28 72  1  0
 29 73  1  0
 30 74  1  0
 30 75  1  0
 31 76  1  0
 35 77  1  0
 35 78  1  0
 35 79  1  0
M  END
> <Name>
RB2007a_9

> <Clean Energy>
175.159378

$$$$
RB2007a_10a/b-a
  SciTegic12132405553D

 74 78  0  0  0  0            999 V2000
   13.2681  -17.1745   -0.2443 C   0  0  1  0  0  0
   13.4344  -18.2918    0.8247 C   0  0  1  0  0  0
   11.6645  -17.2494   -0.5198 C   0  0
   13.2210  -19.8161    0.0380 C   0  0  2  0  0  0
   10.9908  -18.7955   -0.5108 C   0  0
   11.9752  -19.7331   -1.0778 C   0  0
   15.4029  -16.0150    0.7649 C   0  0  2  0  0  0
   15.8269  -17.5788    1.0742 C   0  0
   13.7862  -15.8399    0.4115 C   0  0  1  0  0  0
   14.7036  -18.1321    1.8444 C   0  0
   15.8290  -13.6399    0.2680 C   0  0  1  0  0  0
   16.3678  -15.1024   -0.1952 C   0  0
   14.3323  -13.3250   -0.1471 C   0  0
   13.6260  -14.6090   -0.5056 C   0  0
   14.1015  -17.3347   -1.7040 C   0  0
   12.8854  -20.7618    1.2170 C   0  0
   14.4640  -20.4780   -0.7348 C   0  0
   15.6084  -15.1859    1.9767 C   0  0
   15.8531  -13.9324    1.7008 C   0  0
   15.5884  -20.6140    0.1695 O   0  0
   16.1583  -12.9072    2.7351 C   0  0
   16.9086  -20.9584   -0.4187 C   0  0  1  0  0  0
   17.5141  -19.7584   -1.2617 C   0  0  1  0  0  0
   18.9330  -20.0523   -1.7158 C   0  0  2  0  0  0
   19.7712  -20.3005   -0.4561 C   0  0  1  0  0  0
   19.1920  -21.5419    0.3444 C   0  0  1  0  0  0
   17.8074  -21.2013    0.7096 O   0  0
   19.4402  -18.9074   -2.4036 O   0  0
   21.1451  -20.4548   -0.8253 O   0  0
   19.2147  -22.9576   -0.4013 C   0  0
   20.5355  -23.4228   -0.7203 O   0  0
   16.7193  -19.4644   -2.4063 O   0  0
   12.5861  -18.1508    1.5102 H   0  0
   11.1264  -16.8128    0.3324 H   0  0
   11.4586  -16.6477   -1.4151 H   0  0
   10.8046  -19.1391    0.5132 H   0  0
   10.0358  -18.7602   -1.0531 H   0  0
   12.2659  -19.2460   -1.9995 H   0  0
   11.6266  -20.7491   -1.3079 H   0  0
   15.8840  -18.1727    0.1873 H   0  0
   16.7975  -17.5840    1.5849 H   0  0
   13.2351  -15.7776    1.3611 H   0  0
   14.8728  -19.0816    2.3653 H   0  0
   14.5083  -17.3591    2.5877 H   0  0
   16.4458  -12.7603    0.0419 H   0  0
   16.3528  -15.3308   -1.2720 H   0  0
   17.3918  -15.2032    0.1883 H   0  0
   13.8727  -12.6802    0.6124 H   0  0
   14.3119  -12.8169   -1.1203 H   0  0
   12.5694  -14.4223   -0.7343 H   0  0
   14.1178  -14.8453   -1.4330 H   0  0
   15.1759  -17.3578   -1.5541 H   0  0
   13.8580  -16.5016   -2.3648 H   0  0
   13.8271  -18.2313   -2.2211 H   0  0
   12.6789  -21.7669    0.8242 H   0  0
   12.0007  -20.3880    1.7506 H   0  0
   13.7341  -20.8107    1.9088 H   0  0
   14.1877  -21.4648   -1.1288 H   0  0
   14.7372  -19.8488   -1.5513 H   0  0
   15.6008  -15.5741    2.9618 H   0  0
   16.5383  -11.9881    2.2660 H   0  0
   16.8786  -13.3252    3.4540 H   0  0
   15.2397  -12.6925    3.2923 H   0  0
   16.8265  -21.8600   -1.0354 H   0  0
   17.5657  -18.8803   -0.6188 H   0  0
   18.9627  -20.9238   -2.3792 H   0  0
   19.6986  -19.4145    0.1940 H   0  0
   19.7786  -21.6572    1.2660 H   0  0
   18.8826  -18.7233   -3.1974 H   0  0
   21.2508  -21.1543   -1.4710 H   0  0
   18.7622  -23.6948    0.2737 H   0  0
   18.6266  -22.9152   -1.3275 H   0  0
   20.9427  -22.8733   -1.3998 H   0  0
   16.6926  -20.2546   -2.9964 H   0  0
  1  3  1  0
  2  4  1  0
  3  5  1  0
  4  6  1  0
  5  6  1  0
  7  8  1  0
  8 10  1  0
  9  1  1  0
 10  2  1  0
  1  2  1  0
 11 12  1  0
 11 13  1  0
 12  7  1  0
 13 14  1  0
  7  9  1  0
 14  9  1  0
  1 15  1  0
  4 16  1  0
  4 17  1  0
  7 18  1  0
 19 18  2  0
 19 11  1  0
 17 20  1  0
 19 21  1  0
 22 23  1  0
 23 24  1  0
 24 25  1  0
 25 26  1  0
 26 27  1  0
 22 27  1  0
 24 28  1  0
 25 29  1  0
 26 30  1  0
 30 31  1  0
 20 22  1  0
 23 32  1  0
  2 33  1  0
  3 34  1  0
  3 35  1  0
  5 36  1  0
  5 37  1  0
  6 38  1  0
  6 39  1  0
  8 40  1  0
  8 41  1  0
  9 42  1  0
 10 43  1  0
 10 44  1  0
 11 45  1  0
 12 46  1  0
 12 47  1  0
 13 48  1  0
 13 49  1  0
 14 50  1  0
 14 51  1  0
 15 52  1  0
 15 53  1  0
 15 54  1  0
 16 55  1  0
 16 56  1  0
 16 57  1  0
 17 58  1  0
 17 59  1  0
 18 60  1  0
 21 61  1  0
 21 62  1  0
 21 63  1  0
 22 64  1  0
 23 65  1  0
 24 66  1  0
 25 67  1  0
 26 68  1  0
 28 69  1  0
 29 70  1  0
 30 71  1  0
 30 72  1  0
 31 73  1  0
 32 74  1  0
M  END
> <Name>
RB2007a_10a/b-a

> <Clean Energy>
267.886444

$$$$
RB2007a_10a/b-b
  SciTegic12132405553D

 74 78  0  0  0  0            999 V2000
   13.3189  -17.1465   -0.2083 C   0  0  1  0  0  0
   13.4582  -18.2797    0.8504 C   0  0  1  0  0  0
   11.7135  -17.1884   -0.4878 C   0  0
   13.2135  -19.7947    0.0481 C   0  0  2  0  0  0
   11.0065  -18.7211   -0.4899 C   0  0
   11.9695  -19.6757   -1.0655 C   0  0
   15.4960  -16.0372    0.8181 C   0  0  2  0  0  0
   15.8668  -17.6222    1.1026 C   0  0
   13.8650  -15.8112    0.4550 C   0  0  1  0  0  0
   14.7272  -18.1656    1.8694 C   0  0
   15.8669  -13.6554    0.3197 C   0  0  1  0  0  0
   16.4705  -15.1394   -0.1220 C   0  0
   14.4123  -13.3212   -0.1587 C   0  0
   13.7204  -14.5944   -0.4888 C   0  0
   14.1513  -17.3212   -1.6700 C   0  0
   12.8582  -20.7443    1.2189 C   0  0
   14.4448  -20.4763   -0.7336 C   0  0
   15.8480  -15.2505    2.1098 C   0  0
   15.7697  -13.8853    1.7564 C   0  0
   15.5713  -20.6338    0.1648 O   0  0
   15.6708  -12.9082    2.6499 C   0  0
   16.8913  -20.9824   -0.4283 C   0  0  1  0  0  0
   17.4979  -19.7840   -1.2757 C   0  0  1  0  0  0
   18.9166  -20.0768   -1.7287 C   0  0  2  0  0  0
   19.7540  -20.3198   -0.4672 C   0  0  1  0  0  0
   19.1765  -21.5608    0.3356 C   0  0  1  0  0  0
   17.7912  -21.2228    0.6995 O   0  0
   19.4221  -18.9322   -2.4187 O   0  0
   21.1287  -20.4713   -0.8344 O   0  0
   19.2028  -22.9772   -0.4074 C   0  0
   20.5250  -23.4399   -0.7246 O   0  0
   16.7028  -19.4931   -2.4209 O   0  0
   12.6127  -18.1275    1.5371 H   0  0
   11.1826  -16.7456    0.3658 H   0  0
   11.5215  -16.5776   -1.3801 H   0  0
   10.8132  -19.0685    0.5316 H   0  0
   10.0522  -18.6610   -1.0313 H   0  0
   12.2701  -19.1866   -1.9832 H   0  0
   11.5989  -20.6819   -1.3041 H   0  0
   15.8983  -18.2028    0.2079 H   0  0
   16.8410  -17.6676    1.6043 H   0  0
   13.3085  -15.7359    1.4004 H   0  0
   14.8756  -19.1284    2.3714 H   0  0
   14.5406  -17.4107    2.6261 H   0  0
   16.4815  -12.7700    0.1104 H   0  0
   16.4691  -15.3550   -1.2016 H   0  0
   17.4872  -15.2515    0.2778 H   0  0
   13.9353  -12.6481    0.5631 H   0  0
   14.4311  -12.8453   -1.1480 H   0  0
   12.6688  -14.4063   -0.7383 H   0  0
   14.2268  -14.8498   -1.3995 H   0  0
   15.2246  -17.3662   -1.5185 H   0  0
   13.9266  -16.4841   -2.3313 H   0  0
   13.8590  -18.2098   -2.1893 H   0  0
   12.6303  -21.7411    0.8167 H   0  0
   11.9815  -20.3570    1.7561 H   0  0
   13.7053  -20.8181    1.9100 H   0  0
   14.1510  -21.4550   -1.1349 H   0  0
   14.7260  -19.8465   -1.5453 H   0  0
   15.2608  -15.5186    2.9963 H   0  0
   16.9069  -15.4379    2.3343 H   0  0
   15.6424  -11.8980    2.3284 H   0  0
   15.6292  -13.1385    3.6827 H   0  0
   16.8077  -21.8850   -1.0436 H   0  0
   17.5505  -18.9048   -0.6363 H   0  0
   18.9485  -20.9496   -2.3899 H   0  0
   19.6786  -19.4322    0.1808 H   0  0
   19.7626  -21.6730    1.2579 H   0  0
   18.8647  -18.7505   -3.2131 H   0  0
   21.2372  -21.1716   -1.4784 H   0  0
   18.7516  -23.7142    0.2684 H   0  0
   18.6152  -22.9374   -1.3341 H   0  0
   20.9316  -22.8904   -1.4045 H   0  0
   16.6761  -20.2849   -3.0088 H   0  0
  1  3  1  0
  2  4  1  0
  3  5  1  0
  4  6  1  0
  5  6  1  0
  7  8  1  0
  8 10  1  0
  9  1  1  0
 10  2  1  0
  1  2  1  0
 11 12  1  0
 11 13  1  0
 12  7  1  0
 13 14  1  0
  7  9  1  0
 14  9  1  0
  1 15  1  0
  4 16  1  0
  4 17  1  0
  7 18  1  0
 19 18  1  0
 19 11  1  0
 17 20  1  0
 19 21  2  0
 22 23  1  0
 23 24  1  0
 24 25  1  0
 25 26  1  0
 26 27  1  0
 22 27  1  0
 24 28  1  0
 25 29  1  0
 26 30  1  0
 30 31  1  0
 20 22  1  0
 23 32  1  0
  2 33  1  0
  3 34  1  0
  3 35  1  0
  5 36  1  0
  5 37  1  0
  6 38  1  0
  6 39  1  0
  8 40  1  0
  8 41  1  0
  9 42  1  0
 10 43  1  0
 10 44  1  0
 11 45  1  0
 12 46  1  0
 12 47  1  0
 13 48  1  0
 13 49  1  0
 14 50  1  0
 14 51  1  0
 15 52  1  0
 15 53  1  0
 15 54  1  0
 16 55  1  0
 16 56  1  0
 16 57  1  0
 17 58  1  0
 17 59  1  0
 18 60  1  0
 18 61  1  0
 21 62  1  0
 21 63  1  0
 22 64  1  0
 23 65  1  0
 24 66  1  0
 25 67  1  0
 26 68  1  0
 28 69  1  0
 29 70  1  0
 30 71  1  0
 30 72  1  0
 31 73  1  0
 32 74  1  0
M  END
> <Name>
RB2007a_10a/b-b

> <Clean Energy>
260.251801

$$$$
RB2007a_11
  SciTegic12132405553D

 99104  0  0  0  0            999 V2000
   13.5527  -16.4385    0.0425 C   0  0  1  0  0  0
   13.3656  -18.0462   -0.0847 C   0  0  2  0  0  0
   12.5065  -15.9182    1.0535 C   0  0
   12.0259  -18.7332    0.4221 C   0  0  2  0  0  0
   11.0202  -16.3301    0.6096 C   0  0
   10.9018  -17.7826   -0.0538 C   0  0
   16.2244  -16.9303   -0.4694 C   0  0  2  0  0  0
   15.6057  -18.2055   -1.0613 C   0  0
   15.0930  -16.1587    0.5305 C   0  0  1  0  0  0
   14.7052  -18.8821   -0.0167 C   0  0
   17.3263  -15.2389    0.0924 C   0  0  2  0  0  0
   16.5762  -15.8339   -1.2509 C   0  0
   16.8562  -13.9415    0.3905 C   0  0
   15.3213  -14.4488    0.5686 C   0  0
   13.2180  -15.7422   -1.3435 C   0  0
   11.9280  -19.0102    1.9629 C   0  0
   11.9339  -20.0524   -0.3043 C   0  0
   17.7834  -17.2372    0.0142 C   0  0
   18.5908  -15.8795   -0.1209 C   0  0  2  0  0  0
   18.8809  -15.6344   -1.1510 H   0  0
   12.1397  -20.0859   -1.5351 O   0  0
   11.6824  -21.2358    0.3773 O   0  0
   11.7067  -22.3401   -0.5373 C   0  0
   19.9128  -15.8550    0.8349 C   0  0
   20.7761  -14.6154    0.8497 O   0  0
   22.1834  -14.7506    0.2098 C   0  0  2  0  0  0
   22.0337  -15.0556   -1.3084 C   0  0
   23.1009  -15.7967    0.7544 O   0  0
   23.0100  -13.4909    0.3474 O   0  0
   24.3893  -13.9834    0.5569 C   0  0  1  0  0  0
   24.3297  -15.3788    0.0606 C   0  0  1  0  0  0
   25.5892  -16.1050    0.3198 O   0  0
   26.7147  -15.4191   -0.3835 C   0  0  1  0  0  0
   26.9118  -13.9519    0.2149 C   0  0  2  0  0  0
   25.5480  -13.1807   -0.1118 C   0  0  2  0  0  0
   26.2260  -10.8329   -0.4423 C   0  0
   26.3387   -9.6757   -0.0233 O   0  0
   25.5893  -11.8155    0.4040 O   0  0
   26.6768  -11.1271   -1.8656 C   0  0
   29.2642  -13.3515    0.2923 C   0  0
   29.3348  -13.9876    1.3501 O   0  0
   28.0290  -13.2315   -0.4001 O   0  0
   30.4923  -12.6709   -0.2476 C   0  0
   28.0342  -16.2802   -0.4637 C   0  0
   30.0638  -16.8081    0.4557 C   0  0
   30.4705  -16.6092   -0.6974 O   0  0
   28.6921  -16.5970    0.7667 O   0  0
   31.0414  -17.2198    1.5193 C   0  0
   13.1869  -18.1074   -1.1582 H   0  0
   12.7163  -16.3452    2.0343 H   0  0
   12.5735  -14.8317    1.1078 H   0  0
   10.3828  -16.3071    1.4935 H   0  0
   10.6657  -15.5959   -0.1138 H   0  0
   10.9636  -17.6800   -1.1372 H   0  0
    9.9383  -18.2147    0.2164 H   0  0
   15.0112  -17.9459   -1.9372 H   0  0
   16.4011  -18.8919   -1.3518 H   0  0
   15.2089  -16.5443    1.5434 H   0  0
   14.5261  -19.9259   -0.2748 H   0  0
   15.1500  -18.8242    0.9767 H   0  0
   16.8898  -15.8378    0.8917 H   0  0
   15.7362  -15.2380   -1.6078 H   0  0
   17.2416  -16.0605   -2.0840 H   0  0
   17.2834  -13.5247    1.3025 H   0  0
   16.9867  -13.2344   -0.4287 H   0  0
   14.9563  -14.0830    1.5283 H   0  0
   14.7286  -14.0134   -0.2360 H   0  0
   13.9296  -16.0750   -2.0991 H   0  0
   13.2861  -14.6599   -1.2327 H   0  0
   12.2082  -16.0126   -1.6520 H   0  0
   10.9707  -19.4804    2.1879 H   0  0
   12.0069  -18.0693    2.5074 H   0  0
   12.7381  -19.6738    2.2654 H   0  0
   17.7933  -17.5762    1.0500 H   0  0
   18.2285  -18.0014   -0.6230 H   0  0
   11.5087  -23.2652    0.0039 H   0  0
   12.6869  -22.3992   -1.0104 H   0  0
   10.9429  -22.1963   -1.3017 H   0  0
   19.5724  -16.0206    1.8570 H   0  0
   20.5483  -16.6843    0.5242 H   0  0
   23.0213  -15.1509   -1.7595 H   0  0
   21.4913  -14.2426   -1.7911 H   0  0
   21.4834  -15.9873   -1.4398 H   0  0
   24.5766  -14.0150    1.6302 H   0  0
   24.1431  -15.3653   -1.0132 H   0  0
   26.3845  -15.2806   -1.4130 H   0  0
   27.0564  -14.0082    1.2938 H   0  0
   25.3956  -13.1557   -1.1908 H   0  0
   26.5157  -12.1820   -2.0875 H   0  0
   27.7364  -10.8926   -1.9675 H   0  0
   26.1016  -10.5178   -2.5628 H   0  0
   30.2463  -12.1622   -1.1797 H   0  0
   31.2679  -13.4139   -0.4336 H   0  0
   30.8538  -11.9429    0.4786 H   0  0
   27.7801  -17.2222   -0.9498 H   0  0
   28.7448  -15.7318   -1.0820 H   0  0
   30.5162  -17.3506    2.4654 H   0  0
   31.8036  -16.4486    1.6312 H   0  0
   31.5149  -18.1594    1.2343 H   0  0
  1  3  1  0
  2  4  1  0
  3  5  1  0
  4  6  1  0
  5  6  1  0
  7  8  1  0
  8 10  1  0
  9  1  1  0
 10  2  1  0
  1  2  1  0
 11 12  1  0
 11 13  1  0
 12  7  1  0
 13 14  1  0
  7  9  1  0
 14  9  1  0
  1 15  1  0
  4 16  1  0
  4 17  1  0
  7 18  1  0
 19 18  1  0
 19 11  1  0
 19 20  1  0
 17 21  2  0
 17 22  1  0
 22 23  1  0
 19 24  1  0
 24 25  1  0
 25 26  1  0
 26 27  1  0
 26 28  1  0
 26 29  1  0
 29 30  1  0
 28 31  1  0
 31 30  1  0
 31 32  1  0
 32 33  1  0
 33 34  1  0
 30 35  1  0
 35 34  1  0
 36 37  2  0
 36 38  1  0
 36 39  1  0
 35 38  1  0
 40 41  2  0
 40 42  1  0
 40 43  1  0
 34 42  1  0
 33 44  1  0
 45 46  2  0
 45 47  1  0
 45 48  1  0
 44 47  1  0
  2 49  1  0
  3 50  1  0
  3 51  1  0
  5 52  1  0
  5 53  1  0
  6 54  1  0
  6 55  1  0
  8 56  1  0
  8 57  1  0
  9 58  1  0
 10 59  1  0
 10 60  1  0
 11 61  1  0
 12 62  1  0
 12 63  1  0
 13 64  1  0
 13 65  1  0
 14 66  1  0
 14 67  1  0
 15 68  1  0
 15 69  1  0
 15 70  1  0
 16 71  1  0
 16 72  1  0
 16 73  1  0
 18 74  1  0
 18 75  1  0
 23 76  1  0
 23 77  1  0
 23 78  1  0
 24 79  1  0
 24 80  1  0
 27 81  1  0
 27 82  1  0
 27 83  1  0
 30 84  1  0
 31 85  1  0
 33 86  1  0
 34 87  1  0
 35 88  1  0
 39 89  1  0
 39 90  1  0
 39 91  1  0
 43 92  1  0
 43 93  1  0
 43 94  1  0
 44 95  1  0
 44 96  1  0
 48 97  1  0
 48 98  1  0
 48 99  1  0
M  END
> <Name>
RB2007a_11

> <Clean Energy>
280.414001

$$$$
RB2007a_12
  SciTegic12132405553D

 99103  0  0  0  0            999 V2000
   13.6198  -16.5409    0.0305 C   0  0  1  0  0  0
   13.4641  -18.1390   -0.1189 C   0  0  2  0  0  0
   12.5586  -16.0326    1.0309 C   0  0
   12.1314  -18.8377    0.3997 C   0  0  2  0  0  0
   11.0856  -16.4481    0.5710 C   0  0
   10.9836  -17.9090   -0.0671 C   0  0
   16.3377  -16.9351   -0.4266 C   0  0  2  0  0  0
   15.7962  -18.2587   -1.0116 C   0  0
   15.1302  -16.2296    0.5615 C   0  0  1  0  0  0
   14.8302  -18.9419   -0.0070 C   0  0
   17.2739  -15.1691    0.1328 C   0  0  2  0  0  0
   16.5754  -15.8312   -1.2100 C   0  0
   16.7082  -13.9131    0.4199 C   0  0
   15.2374  -14.5192    0.6204 C   0  0
   13.2814  -15.8412   -1.3540 C   0  0
   12.0351  -19.0998    1.9544 C   0  0
   12.0114  -20.1643   -0.2754 C   0  0
   17.9646  -17.0850    0.0019 C   0  0
   18.5697  -15.6197   -0.1204 C   0  0  2  0  0  0
   18.7711  -15.2849   -1.1455 H   0  0
   12.3127  -20.2451   -1.5127 O   0  0
   11.6130  -21.3045    0.3846 O   0  0
   11.6171  -22.4298   -0.4964 C   0  0
   19.8537  -15.2906    0.7857 C   0  0
   21.0894  -15.8835    0.1468 O   0  0
   22.9052  -13.8792    0.0192 C   0  0  2  0  0  0
   22.4812  -15.3547    0.5581 C   0  0  2  0  0  0
   23.4986  -16.2955    0.0244 O   0  0
   24.8676  -16.0190    0.5184 C   0  0  2  0  0  0
   25.3519  -14.5963    0.0044 C   0  0  1  0  0  0
   24.3381  -13.5140    0.5095 C   0  0  1  0  0  0
   25.6800  -11.3705    0.4438 C   0  0
   25.9561  -10.3201   -0.1491 O   0  0
   24.6554  -12.2093   -0.1117 O   0  0
   26.3685  -11.6518    1.7611 C   0  0
   27.7459  -14.4382   -0.4483 C   0  0
   27.5218  -14.9071   -1.5690 O   0  0
   26.6922  -14.2276    0.4728 O   0  0
   29.1553  -14.0641   -0.0607 C   0  0
   25.8465  -17.1522    0.0467 C   0  0
   28.1693  -17.6889    0.1513 C   0  0
   28.0597  -18.0784   -1.0163 O   0  0
   27.0791  -17.0895    0.8119 O   0  0
   29.4951  -17.8056    0.8586 C   0  0
   20.9802  -12.5254   -0.3203 C   0  0
   20.7869  -13.1864   -1.3465 O   0  0
   22.0757  -12.7893    0.4902 O   0  0
   20.0291  -11.4274    0.0600 C   0  0
   13.2996  -18.2069   -1.1943 H   0  0
   12.7596  -16.4634    2.0118 H   0  0
   12.6188  -14.9459    1.0915 H   0  0
   10.4325  -16.4103    1.4429 H   0  0
   10.7437  -15.7269   -0.1713 H   0  0
   11.0246  -17.8204   -1.1527 H   0  0
   10.0325  -18.3534    0.2261 H   0  0
   15.2609  -18.0490   -1.9377 H   0  0
   16.6314  -18.9280   -1.2177 H   0  0
   15.2330  -16.6216    1.5734 H   0  0
   14.6801  -19.9879   -0.2742 H   0  0
   15.2272  -18.8786    1.0062 H   0  0
   16.9295  -15.8048    0.9485 H   0  0
   15.6815  -15.3176   -1.5639 H   0  0
   17.2542  -15.9985   -2.0462 H   0  0
   17.1125  -13.4532    1.3217 H   0  0
   16.7759  -13.2090   -0.4094 H   0  0
   14.8695  -14.1929    1.5932 H   0  0
   14.5980  -14.1154   -0.1645 H   0  0
   13.9999  -16.1610   -2.1085 H   0  0
   13.3353  -14.7588   -1.2373 H   0  0
   12.2762  -16.1227   -1.6678 H   0  0
   11.0835  -19.5791    2.1843 H   0  0
   12.1020  -18.1517    2.4880 H   0  0
   12.8531  -19.7497    2.2651 H   0  0
   18.0574  -17.4518    1.0241 H   0  0
   18.4765  -17.7668   -0.6773 H   0  0
   11.2988  -23.3190    0.0477 H   0  0
   12.6236  -22.5835   -0.8855 H   0  0
   10.9320  -22.2463   -1.3241 H   0  0
   19.9714  -14.2102    0.8695 H   0  0
   19.7170  -15.7197    1.7783 H   0  0
   22.8955  -13.8850   -1.0707 H   0  0
   22.5446  -15.3572    1.6462 H   0  0
   24.8484  -16.0072    1.6082 H   0  0
   25.3494  -14.5977   -1.0856 H   0  0
   24.3653  -13.4392    1.5966 H   0  0
   26.0224  -12.6070    2.1558 H   0  0
   26.1331  -10.8591    2.4712 H   0  0
   27.4468  -11.6923    1.6066 H   0  0
   29.1608  -13.6704    0.9556 H   0  0
   29.5317  -13.3047   -0.7461 H   0  0
   29.7929  -14.9467   -0.1113 H   0  0
   25.3755  -18.1233    0.1991 H   0  0
   26.0708  -17.0186   -1.0115 H   0  0
   29.4025  -17.4150    1.8720 H   0  0
   30.2481  -17.2334    0.3167 H   0  0
   29.7948  -18.8528    0.8994 H   0  0
   20.3626  -10.9623    0.9876 H   0  0
   19.0313  -11.8429    0.2007 H   0  0
   20.0022  -10.6788   -0.7320 H   0  0
  1  3  1  0
  2  4  1  0
  3  5  1  0
  4  6  1  0
  5  6  1  0
  7  8  1  0
  8 10  1  0
  9  1  1  0
 10  2  1  0
  1  2  1  0
 11 12  1  0
 11 13  1  0
 12  7  1  0
 13 14  1  0
  7  9  1  0
 14  9  1  0
  1 15  1  0
  4 16  1  0
  4 17  1  0
  7 18  1  0
 19 18  1  0
 19 11  1  0
 19 20  1  0
 17 21  2  0
 17 22  1  0
 22 23  1  0
 19 24  1  0
 24 25  1  0
 27 26  1  0
 27 28  1  0
 28 29  1  0
 29 30  1  0
 26 31  1  0
 31 30  1  0
 32 33  2  0
 32 34  1  0
 32 35  1  0
 31 34  1  0
 36 37  2  0
 36 38  1  0
 36 39  1  0
 30 38  1  0
 29 40  1  0
 41 42  2  0
 41 43  1  0
 41 44  1  0
 40 43  1  0
 25 27  1  0
 45 46  2  0
 45 47  1  0
 45 48  1  0
 26 47  1  0
  2 49  1  0
  3 50  1  0
  3 51  1  0
  5 52  1  0
  5 53  1  0
  6 54  1  0
  6 55  1  0
  8 56  1  0
  8 57  1  0
  9 58  1  0
 10 59  1  0
 10 60  1  0
 11 61  1  0
 12 62  1  0
 12 63  1  0
 13 64  1  0
 13 65  1  0
 14 66  1  0
 14 67  1  0
 15 68  1  0
 15 69  1  0
 15 70  1  0
 16 71  1  0
 16 72  1  0
 16 73  1  0
 18 74  1  0
 18 75  1  0
 23 76  1  0
 23 77  1  0
 23 78  1  0
 24 79  1  0
 24 80  1  0
 26 81  1  0
 27 82  1  0
 29 83  1  0
 30 84  1  0
 31 85  1  0
 35 86  1  0
 35 87  1  0
 35 88  1  0
 39 89  1  0
 39 90  1  0
 39 91  1  0
 40 92  1  0
 40 93  1  0
 44 94  1  0
 44 95  1  0
 44 96  1  0
 48 97  1  0
 48 98  1  0
 48 99  1  0
M  END
> <Name>
RB2007a_12

> <Clean Energy>
255.489929

$$$$
RB2007a_13
  SciTegic12132405553D

 99103  0  0  0  0            999 V2000
   13.0262  -16.3221    0.0840 C   0  0  1  0  0  0
   13.2482  -17.9332    0.3787 C   0  0  1  0  0  0
   11.7218  -15.9214    0.7358 C   0  0
   11.8631  -18.8769    0.2954 C   0  0  2  0  0  0
   10.5120  -16.7583   -0.0388 C   0  0
   10.8792  -18.2529   -0.6472 C   0  0
   15.7879  -16.0671   -0.0424 C   0  0  2  0  0  0
   15.7761  -17.6162    0.0480 C   0  0
   14.3711  -15.5452    0.6163 C   0  0  1  0  0  0
   14.4592  -18.2831   -0.5563 C   0  0
   16.2876  -13.9896   -1.0632 C   0  0  1  0  0  0
   15.8738  -15.4841   -1.4135 C   0  0
   15.5100  -13.3511    0.1845 C   0  0
   14.1558  -14.0217    0.2809 C   0  0
   12.7803  -15.9481   -1.4622 C   0  0
   11.0623  -18.9350    1.6598 C   0  0
   12.1119  -20.3291   -0.0615 C   0  0
   17.1249  -15.4027    0.6203 C   0  0
   17.6149  -14.3930   -0.5132 C   0  0  2  0  0  0
   18.1074  -14.9519   -1.3172 H   0  0
   12.9413  -20.6302   -0.9833 O   0  0
   11.3919  -21.3558    0.5102 O   0  0
   11.7696  -22.6169   -0.0492 C   0  0
   18.5547  -13.1698   -0.1140 C   0  0
   19.8970  -13.5107    0.3751 O   0  0
   21.0584  -11.0304    0.3955 C   0  0  1  0  0  0
   21.0607  -12.5997   -0.0735 C   0  0  1  0  0  0
   22.3107  -13.2364    0.4083 O   0  0
   23.5394  -12.5502   -0.0569 C   0  0  1  0  0  0
   23.6010  -11.0612    0.4411 C   0  0  2  0  0  0
   22.3460  -10.3340   -0.1251 C   0  0  2  0  0  0
   23.0864   -7.9503   -0.3269 C   0  0
   23.1372   -6.8116    0.1523 O   0  0
   22.3308   -8.9524    0.3783 O   0  0
   23.7418   -8.1921   -1.6743 C   0  0
   26.0380  -10.4147    0.6046 C   0  0
   26.1285  -10.9916    1.6936 O   0  0
   24.7985  -10.3583   -0.1028 O   0  0
   27.2542   -9.7611    0.0094 C   0  0
   24.8056  -13.2773    0.4425 C   0  0
   26.6178  -14.4135   -0.1231 C   0  0
   27.1539  -13.5561    0.5954 O   0  0
   25.2120  -14.3964   -0.3013 O   0  0
   27.4773  -15.4094   -0.8382 C   0  0
   18.8272  -10.0750    0.5436 C   0  0
   18.7049  -10.6264    1.6414 O   0  0
   19.9984  -10.2073   -0.1916 O   0  0
   17.7055   -9.2412   -0.0137 C   0  0
   13.6150  -18.0124    1.4021 H   0  0
   11.7375  -16.1811    1.7943 H   0  0
   11.5634  -14.8485    0.6267 H   0  0
    9.6979  -16.8881    0.6742 H   0  0
   10.1718  -16.1425   -0.8714 H   0  0
   11.3205  -18.1556   -1.6391 H   0  0
    9.9789  -18.8643   -0.7079 H   0  0
   16.6378  -17.9994   -0.4986 H   0  0
   15.8552  -17.9003    1.0974 H   0  0
   14.4302  -15.6568    1.6990 H   0  0
   14.2755  -17.8922   -1.5570 H   0  0
   14.5846  -19.3648   -0.6055 H   0  0
   16.3488  -13.3321   -1.9305 H   0  0
   14.9148  -15.5262   -1.9299 H   0  0
   16.6336  -15.9819   -2.0160 H   0  0
   16.0748  -13.5238    1.1006 H   0  0
   15.3824  -12.2793    0.0323 H   0  0
   13.5689  -13.5517    1.0700 H   0  0
   13.6305  -13.9260   -0.6694 H   0  0
   13.6688  -16.1967   -2.0424 H   0  0
   12.5763  -14.8810   -1.5503 H   0  0
   11.9290  -16.5130   -1.8422 H   0  0
   10.1787  -19.5612    1.5367 H   0  0
   10.7567  -17.9285    1.9455 H   0  0
   11.6994  -19.3555    2.4380 H   0  0
   16.8845  -14.8722    1.5416 H   0  0
   17.8807  -16.1613    0.8239 H   0  0
   11.1876  -23.4112    0.4181 H   0  0
   12.8306  -22.7912    0.1299 H   0  0
   11.5789  -22.6106   -1.1223 H   0  0
   18.6731  -12.5408   -0.9964 H   0  0
   18.0495  -12.6055    0.6699 H   0  0
   21.0169  -10.9683    1.4830 H   0  0
   21.0858  -12.6147   -1.1632 H   0  0
   23.5458  -12.5517   -1.1469 H   0  0
   23.6017  -11.0248    1.5305 H   0  0
   22.3649  -10.3396   -1.2149 H   0  0
   23.6127   -9.2361   -1.9596 H   0  0
   24.8054   -7.9629   -1.6079 H   0  0
   23.2786   -7.5511   -2.4245 H   0  0
   26.9916   -9.3045   -0.9448 H   0  0
   28.0297  -10.5107   -0.1482 H   0  0
   27.6242   -8.9935    0.6892 H   0  0
   25.6254  -12.5590    0.4369 H   0  0
   24.6182  -13.6075    1.4642 H   0  0
   26.8474  -16.0828   -1.4193 H   0  0
   28.0494  -15.9852   -0.1106 H   0  0
   28.1617  -14.8862   -1.5060 H   0  0
   17.9977   -8.8400   -0.9840 H   0  0
   17.4895   -8.4190    0.6687 H   0  0
   16.8154   -9.8596   -0.1299 H   0  0
  1  3  1  0
  2  4  1  0
  3  5  1  0
  4  6  1  0
  5  6  1  0
  7  8  1  0
  8 10  1  0
  9  1  1  0
 10  2  1  0
  1  2  1  0
 11 12  1  0
 11 13  1  0
 12  7  1  0
 13 14  1  0
  7  9  1  0
 14  9  1  0
  1 15  1  0
  4 16  1  0
  4 17  1  0
  7 18  1  0
 19 18  1  0
 19 11  1  0
 19 20  1  0
 17 21  2  0
 17 22  1  0
 22 23  1  0
 19 24  1  0
 24 25  1  0
 27 26  1  0
 27 28  1  0
 28 29  1  0
 29 30  1  0
 26 31  1  0
 31 30  1  0
 32 33  2  0
 32 34  1  0
 32 35  1  0
 31 34  1  0
 36 37  2  0
 36 38  1  0
 36 39  1  0
 30 38  1  0
 29 40  1  0
 41 42  2  0
 41 43  1  0
 41 44  1  0
 40 43  1  0
 25 27  1  0
 45 46  2  0
 45 47  1  0
 45 48  1  0
 26 47  1  0
  2 49  1  0
  3 50  1  0
  3 51  1  0
  5 52  1  0
  5 53  1  0
  6 54  1  0
  6 55  1  0
  8 56  1  0
  8 57  1  0
  9 58  1  0
 10 59  1  0
 10 60  1  0
 11 61  1  0
 12 62  1  0
 12 63  1  0
 13 64  1  0
 13 65  1  0
 14 66  1  0
 14 67  1  0
 15 68  1  0
 15 69  1  0
 15 70  1  0
 16 71  1  0
 16 72  1  0
 16 73  1  0
 18 74  1  0
 18 75  1  0
 23 76  1  0
 23 77  1  0
 23 78  1  0
 24 79  1  0
 24 80  1  0
 26 81  1  0
 27 82  1  0
 29 83  1  0
 30 84  1  0
 31 85  1  0
 35 86  1  0
 35 87  1  0
 35 88  1  0
 39 89  1  0
 39 90  1  0
 39 91  1  0
 40 92  1  0
 40 93  1  0
 44 94  1  0
 44 95  1  0
 44 96  1  0
 48 97  1  0
 48 98  1  0
 48 99  1  0
M  END
> <Name>
RB2007a_13

> <Clean Energy>
182.178452

$$$$
RB2007a_14
  SciTegic12132405553D

 63 66  0  0  0  0            999 V2000
   12.3133  -16.7924   -0.0739 C   0  0  1  0  0  0
   12.5057  -18.0512    0.8640 C   0  0  1  0  0  0
   10.9406  -16.1930    0.4717 C   0  0
   11.4728  -19.2478    0.6305 C   0  0  2  0  0  0
    9.8074  -17.3025    0.7893 C   0  0
   10.1225  -18.6246    0.0910 C   0  0
   14.9832  -16.5832   -0.1038 C   0  0  2  0  0  0
   14.8697  -18.1591    0.0007 C   0  0
   13.5440  -15.8994    0.3096 C   0  0  1  0  0  0
   14.0094  -18.5078    1.1945 C   0  0
   15.7476  -14.5967   -1.1732 C   0  0  1  0  0  0
   15.3271  -16.0885   -1.4915 C   0  0
   14.7792  -13.8133   -0.1997 C   0  0
   13.4301  -14.4658   -0.2961 C   0  0
   12.2335  -16.9982   -1.6709 C   0  0
   11.2731  -19.9861    1.9656 C   0  0
   11.9277  -20.2577   -0.4169 C   0  0
   16.1755  -15.9338    0.7383 C   0  0
   16.8881  -15.0302   -0.3393 C   0  0  2  0  0  0
   17.5058  -15.6533   -1.0000 H   0  0
   12.3940  -19.8941   -1.4981 O   0  0
   11.8563  -21.6178   -0.1278 O   0  0
   12.3715  -22.3712   -1.2318 C   0  0
   17.7520  -13.8782    0.1956 C   0  0
   19.8781  -13.3754    0.8277 C   0  0
   19.6301  -12.2947    0.2779 O   0  0
   18.9047  -14.3791    0.8606 O   0  0
   21.2406  -13.6211    1.4046 C   0  0
   12.1769  -17.6610    1.8271 H   0  0
   11.1490  -15.6457    1.3910 H   0  0
   10.5458  -15.5076   -0.2783 H   0  0
    9.7646  -17.4697    1.8656 H   0  0
    8.8423  -16.9362    0.4393 H   0  0
   10.2157  -18.4475   -0.9804 H   0  0
    9.3088  -19.3264    0.2744 H   0  0
   14.4139  -18.5543   -0.9071 H   0  0
   15.8629  -18.5902    0.1266 H   0  0
   13.5383  -15.7920    1.3943 H   0  0
   14.0400  -19.5827    1.3725 H   0  0
   14.3708  -17.9822    2.0784 H   0  0
   16.0401  -14.0257   -2.0544 H   0  0
   14.4653  -16.1297   -2.1577 H   0  0
   16.1509  -16.6540   -1.9269 H   0  0
   15.1504  -13.8726    0.8234 H   0  0
   14.7111  -12.7683   -0.5021 H   0  0
   12.6974  -13.8848    0.2639 H   0  0
   13.1234  -14.5288   -1.3402 H   0  0
   13.1765  -17.4080   -2.0325 H   0  0
   12.0466  -16.0384   -2.1526 H   0  0
   11.4234  -17.6876   -1.9089 H   0  0
   10.5703  -20.8073    1.8256 H   0  0
   10.8784  -19.2934    2.7089 H   0  0
   12.2291  -20.3813    2.3093 H   0  0
   15.7948  -15.3359    1.5663 H   0  0
   16.8508  -16.6985    1.1220 H   0  0
   12.3148  -23.4355   -1.0039 H   0  0
   13.4104  -22.0929   -1.4089 H   0  0
   11.7818  -22.1592   -2.1237 H   0  0
   18.0653  -13.2495   -0.6380 H   0  0
   17.1639  -13.2862    0.8968 H   0  0
   21.2752  -14.6177    1.8444 H   0  0
   21.4496  -12.8776    2.1738 H   0  0
   21.9887  -13.5467    0.6153 H   0  0
  1  3  1  0
  2  4  1  0
  3  5  1  0
  4  6  1  0
  5  6  1  0
  7  8  1  0
  8 10  1  0
  9  1  1  0
 10  2  1  0
  1  2  1  0
 11 12  1  0
 11 13  1  0
 12  7  1  0
 13 14  1  0
  7  9  1  0
 14  9  1  0
  1 15  1  0
  4 16  1  0
  4 17  1  0
  7 18  1  0
 19 18  1  0
 19 11  1  0
 19 20  1  0
 17 21  2  0
 17 22  1  0
 22 23  1  0
 19 24  1  0
 25 26  2  0
 25 27  1  0
 25 28  1  0
 24 27  1  0
  2 29  1  0
  3 30  1  0
  3 31  1  0
  5 32  1  0
  5 33  1  0
  6 34  1  0
  6 35  1  0
  8 36  1  0
  8 37  1  0
  9 38  1  0
 10 39  1  0
 10 40  1  0
 11 41  1  0
 12 42  1  0
 12 43  1  0
 13 44  1  0
 13 45  1  0
 14 46  1  0
 14 47  1  0
 15 48  1  0
 15 49  1  0
 15 50  1  0
 16 51  1  0
 16 52  1  0
 16 53  1  0
 18 54  1  0
 18 55  1  0
 23 56  1  0
 23 57  1  0
 23 58  1  0
 24 59  1  0
 24 60  1  0
 28 61  1  0
 28 62  1  0
 28 63  1  0
M  END
> <Name>
RB2007a_14

> <Clean Energy>
153.790939

$$$$
RB2007a_15
  SciTegic12132405553D

 77 81  0  0  0  0            999 V2000
   12.8199  -16.4009   -0.0088 C   0  0  1  0  0  0
   12.8919  -17.8139    0.5900 C   0  0  1  0  0  0
   11.5386  -15.7363    0.6746 C   0  0
   11.6299  -18.7788    0.1805 C   0  0  2  0  0  0
   10.4220  -16.7997    1.1558 C   0  0
   10.3209  -17.9114    0.1532 C   0  0
   15.5628  -16.2828    0.2352 C   0  0  2  0  0  0
   15.4542  -17.7136    0.8493 C   0  0
   14.1131  -15.5759    0.4947 C   0  0  1  0  0  0
   14.2489  -18.5334    0.2944 C   0  0
   16.2383  -14.5506   -1.2060 C   0  0  1  0  0  0
   15.8375  -16.1118   -1.2179 C   0  0
   15.3518  -13.6040   -0.2781 C   0  0
   13.9907  -14.1912   -0.2178 C   0  0
   12.6897  -16.3994   -1.5965 C   0  0
   11.5807  -19.8889    1.2449 C   0  0
   11.6440  -19.4929   -1.2312 C   0  0
   16.8047  -15.4937    0.8692 C   0  0
   17.4334  -14.7887   -0.3854 C   0  0  2  0  0  0
   18.0361  -15.5087   -0.9554 H   0  0
   12.7479  -20.3930   -1.3816 O   0  0
   18.2774  -13.5333   -0.1114 C   0  0
   19.4872  -13.8462    0.5830 O   0  0
   20.4451  -11.4732    0.5257 C   0  0  1  0  0  0
   20.5740  -12.9897    0.0964 C   0  0  1  0  0  0
   21.8340  -13.5169    0.5774 O   0  0
   22.9583  -12.8092   -0.0026 C   0  0  1  0  0  0
   22.9290  -11.3304    0.4151 C   0  0  2  0  0  0
   21.6272  -10.7102   -0.0830 C   0  0  2  0  0  0
   21.5683   -9.3353    0.2988 O   0  0
   24.0380  -10.6415   -0.1682 O   0  0
   24.2742  -13.4422    0.4808 C   0  0
   24.3190  -14.8122    0.0775 O   0  0
   19.2434  -10.8549    0.0492 O   0  0
   12.8421  -17.6896    1.6717 H   0  0
   11.8701  -15.1704    1.5453 H   0  0
   11.0789  -15.0595   -0.0456 H   0  0
   10.7057  -17.2100    2.1250 H   0  0
    9.4574  -16.2992    1.2409 H   0  0
   10.1888  -17.4885   -0.8426 H   0  0
    9.4654  -18.5411    0.3975 H   0  0
   16.3731  -18.2560    0.6268 H   0  0
   15.3401  -17.6187    1.9291 H   0  0
   14.0083  -15.4110    1.5671 H   0  0
   14.3630  -18.6479   -0.7836 H   0  0
   14.2402  -19.5161    0.7658 H   0  0
   16.4497  -14.1370   -2.1921 H   0  0
   14.9547  -16.3040   -1.8276 H   0  0
   16.6585  -16.7434   -1.5572 H   0  0
   15.7812  -13.5552    0.7225 H   0  0
   15.3065  -12.6016   -0.7039 H   0  0
   13.3274  -13.5377    0.3488 H   0  0
   13.5969  -14.3240   -1.2255 H   0  0
   13.5761  -16.8579   -2.0347 H   0  0
   12.5980  -15.3734   -1.9531 H   0  0
   11.8057  -16.9658   -1.8896 H   0  0
   10.7561  -20.5671    1.0255 H   0  0
   11.4321  -19.4434    2.2286 H   0  0
   12.5189  -20.4437    1.2357 H   0  0
   10.7172  -20.0547   -1.3475 H   0  0
   11.7071  -18.7304   -2.0075 H   0  0
   16.4724  -14.7630    1.6066 H   0  0
   17.5135  -16.1807    1.3316 H   0  0
   13.6486  -19.8631   -1.2796 H   0  0
   18.5284  -13.0630   -1.0621 H   0  0
   17.6927  -12.8408    0.4940 H   0  0
   20.4856  -11.3987    1.6124 H   0  0
   20.5804  -13.0350   -0.9927 H   0  0
   22.9044  -12.8771   -1.0892 H   0  0
   22.9798  -11.2546    1.5013 H   0  0
   21.5842  -10.7852   -1.1696 H   0  0
   20.6705   -8.9139   -0.0462 H   0  0
   24.9344  -11.0778    0.1615 H   0  0
   25.1171  -12.9069    0.0436 H   0  0
   24.3289  -13.3814    1.5677 H   0  0
   23.5071  -15.3282    0.4982 H   0  0
   19.2228  -10.8911   -1.0000 H   0  0
  1  3  1  0
  2  4  1  0
  3  5  1  0
  4  6  1  0
  5  6  1  0
  7  8  1  0
  8 10  1  0
  9  1  1  0
 10  2  1  0
  1  2  1  0
 11 12  1  0
 11 13  1  0
 12  7  1  0
 13 14  1  0
  7  9  1  0
 14  9  1  0
  1 15  1  0
  4 16  1  0
  4 17  1  0
  7 18  1  0
 19 18  1  0
 19 11  1  0
 19 20  1  0
 17 21  1  0
 19 22  1  0
 22 23  1  0
 25 24  1  0
 25 26  1  0
 26 27  1  0
 27 28  1  0
 24 29  1  0
 29 28  1  0
 29 30  1  0
 28 31  1  0
 27 32  1  0
 32 33  1  0
 23 25  1  0
 24 34  1  0
  2 35  1  0
  3 36  1  0
  3 37  1  0
  5 38  1  0
  5 39  1  0
  6 40  1  0
  6 41  1  0
  8 42  1  0
  8 43  1  0
  9 44  1  0
 10 45  1  0
 10 46  1  0
 11 47  1  0
 12 48  1  0
 12 49  1  0
 13 50  1  0
 13 51  1  0
 14 52  1  0
 14 53  1  0
 15 54  1  0
 15 55  1  0
 15 56  1  0
 16 57  1  0
 16 58  1  0
 16 59  1  0
 17 60  1  0
 17 61  1  0
 18 62  1  0
 18 63  1  0
 21 64  1  0
 22 65  1  0
 22 66  1  0
 24 67  1  0
 25 68  1  0
 27 69  1  0
 28 70  1  0
 29 71  1  0
 30 72  1  0
 31 73  1  0
 32 74  1  0
 32 75  1  0
 33 76  1  0
 34 77  1  0
M  END
> <Name>
RB2007a_15

> <Clean Energy>
118.998497

$$$$
RB2007a_16
  SciTegic12132405553D

 79 83  0  0  0  0            999 V2000
   12.8374  -16.5082    0.1017 C   0  0  1  0  0  0
   13.0649  -18.1195    0.3358 C   0  0  1  0  0  0
   11.5310  -16.1365    0.7601 C   0  0
   11.7093  -19.0561    0.2240 C   0  0  2  0  0  0
   10.3379  -16.9525   -0.0515 C   0  0
   10.7369  -18.4138   -0.7172 C   0  0
   15.5810  -16.2837    0.0236 C   0  0  2  0  0  0
   15.5707  -17.8305    0.0505 C   0  0
   14.1602  -15.7784    0.6823 C   0  0  1  0  0  0
   14.2704  -18.4650   -0.5917 C   0  0
   16.0904  -14.1483   -0.8460 C   0  0  1  0  0  0
   15.7041  -15.6227   -1.3146 C   0  0
   15.2829  -13.5856    0.4075 C   0  0
   13.9446  -14.2481    0.4217 C   0  0
   12.6112  -16.0628   -1.4330 C   0  0
   10.9799  -19.2002    1.6052 C   0  0
   12.1008  -20.4488   -0.2275 C   0  0
   16.8786  -15.6835    0.7529 C   0  0
   17.3708  -14.5909   -0.2652 C   0  0  2  0  0  0
   17.9215  -15.0653   -1.0900 H   0  0
   12.4398  -20.6485   -1.3897 O   0  0
   18.2079  -13.4404    0.3223 C   0  0
   19.5022  -13.8460    0.7818 O   0  0
   20.4948  -11.4859    0.5305 C   0  0  1  0  0  0
   20.5695  -13.0288    0.1556 C   0  0  1  0  0  0
   21.8560  -13.5547    0.5850 O   0  0
   22.9678  -12.8675   -0.0551 C   0  0  1  0  0  0
   22.9635  -11.3765    0.3207 C   0  0  2  0  0  0
   21.6547  -10.7593   -0.1515 C   0  0  2  0  0  0
   21.6234   -9.3731    0.1927 O   0  0
   24.0593  -10.7127   -0.3139 O   0  0
   24.2996  -13.4839    0.4116 C   0  0
   24.3406  -14.8654    0.0563 O   0  0
   19.2871  -10.8532    0.0840 O   0  0
   12.0172  -21.5163    0.6627 O   0  0
   12.4011  -22.7195   -0.0193 C   0  0
   13.4268  -18.2298    1.3580 H   0  0
   11.5416  -16.4328    1.8090 H   0  0
   11.3666  -15.0614    0.6873 H   0  0
    9.5226  -17.1245    0.6512 H   0  0
    9.9919  -16.3080   -0.8596 H   0  0
   11.1977  -18.2695   -1.6944 H   0  0
    9.8477  -19.0353   -0.8225 H   0  0
   16.4388  -18.1907   -0.5015 H   0  0
   15.6377  -18.1578    1.0880 H   0  0
   14.2009  -15.9430    1.7591 H   0  0
   14.1057  -18.0474   -1.5850 H   0  0
   14.3833  -19.5466   -0.6658 H   0  0
   16.1959  -13.4351   -1.6636 H   0  0
   14.7634  -15.6409   -1.8649 H   0  0
   16.4890  -16.0753   -1.9207 H   0  0
   15.8199  -13.8148    1.3279 H   0  0
   15.1614  -12.5062    0.3163 H   0  0
   13.3301  -13.8216    1.2145 H   0  0
   13.4509  -14.1033   -0.5392 H   0  0
   13.5063  -16.2877   -2.0129 H   0  0
   12.4111  -14.9921   -1.4754 H   0  0
   11.7633  -16.6072   -1.8488 H   0  0
   10.0940  -19.8238    1.4855 H   0  0
   10.6839  -18.2147    1.9649 H   0  0
   11.6541  -19.6623    2.3263 H   0  0
   16.6190  -15.2378    1.7131 H   0  0
   17.6368  -16.4523    0.9017 H   0  0
   18.3391  -12.6817   -0.4493 H   0  0
   17.6625  -13.0131    1.1637 H   0  0
   20.5834  -11.3724    1.6109 H   0  0
   20.4955  -13.1288   -0.9273 H   0  0
   22.8814  -12.9685   -1.1370 H   0  0
   23.0486  -11.2714    1.4023 H   0  0
   21.5687  -10.8689   -1.2326 H   0  0
   20.7149   -8.9534   -0.1253 H   0  0
   24.9620  -11.1468    0.0011 H   0  0
   25.1279  -12.9619   -0.0675 H   0  0
   24.3847  -13.3855    1.4938 H   0  0
   23.5434  -15.3698    0.5174 H   0  0
   19.2174  -10.9289   -0.9610 H   0  0
   12.3396  -23.5630    0.6683 H   0  0
   13.4242  -22.6213   -0.3823 H   0  0
   11.7316  -22.8893   -0.8626 H   0  0
  1  3  1  0
  2  4  1  0
  3  5  1  0
  4  6  1  0
  5  6  1  0
  7  8  1  0
  8 10  1  0
  9  1  1  0
 10  2  1  0
  1  2  1  0
 11 12  1  0
 11 13  1  0
 12  7  1  0
 13 14  1  0
  7  9  1  0
 14  9  1  0
  1 15  1  0
  4 16  1  0
  4 17  1  0
  7 18  1  0
 19 18  1  0
 19 11  1  0
 19 20  1  0
 17 21  2  0
 19 22  1  0
 22 23  1  0
 25 24  1  0
 25 26  1  0
 26 27  1  0
 27 28  1  0
 24 29  1  0
 29 28  1  0
 29 30  1  0
 28 31  1  0
 27 32  1  0
 32 33  1  0
 23 25  1  0
 24 34  1  0
 17 35  1  0
 35 36  1  0
  2 37  1  0
  3 38  1  0
  3 39  1  0
  5 40  1  0
  5 41  1  0
  6 42  1  0
  6 43  1  0
  8 44  1  0
  8 45  1  0
  9 46  1  0
 10 47  1  0
 10 48  1  0
 11 49  1  0
 12 50  1  0
 12 51  1  0
 13 52  1  0
 13 53  1  0
 14 54  1  0
 14 55  1  0
 15 56  1  0
 15 57  1  0
 15 58  1  0
 16 59  1  0
 16 60  1  0
 16 61  1  0
 18 62  1  0
 18 63  1  0
 22 64  1  0
 22 65  1  0
 24 66  1  0
 25 67  1  0
 27 68  1  0
 28 69  1  0
 29 70  1  0
 30 71  1  0
 31 72  1  0
 32 73  1  0
 32 74  1  0
 33 75  1  0
 34 76  1  0
 36 77  1  0
 36 78  1  0
 36 79  1  0
M  END
> <Name>
RB2007a_16

> <Clean Energy>
143.849838

$$$$
RB2007a_8a/b-b
  SciTegic12132405553D

 94 98  0  0  0  0            999 V2000
   13.2432  -17.3878    0.4377 C   0  0  1  0  0  0
   14.3495  -18.6710    0.2698 C   0  0  2  0  0  0
   11.9881  -18.0007    0.9571 C   0  0
   13.7198  -20.1963   -0.1554 C   0  0  2  0  0  0
   11.4102  -19.1070   -0.1557 C   0  0
   12.5851  -19.9275   -1.0209 C   0  0
   15.4484  -16.0780    1.4459 C   0  0  2  0  0  0
   16.0151  -17.5124    1.7989 C   0  0
   13.8965  -16.2530    1.6388 C   0  0  1  0  0  0
   15.1285  -18.7973    1.5089 C   0  0
   15.1797  -13.9795    0.3291 C   0  0  1  0  0  0
   15.7700  -15.4446    0.0884 C   0  0
   13.6125  -13.9401    0.5094 C   0  0
   13.2312  -14.8495    1.7321 C   0  0
   12.8590  -16.7241   -1.0404 C   0  0
   13.2349  -21.1296    1.0502 C   0  0
   14.8705  -20.9226   -0.9699 C   0  0
   16.2576  -14.9910    2.2762 C   0  0
   15.8181  -13.6870    1.6289 C   0  0
   16.0035  -21.0858   -0.1907 O   0  0
   16.0032  -12.4707    2.1356 C   0  0
   17.3523  -21.0520   -0.8196 C   0  0  1  0  0  0
   17.9236  -19.5440   -1.0985 C   0  0  1  0  0  0
   19.3938  -19.5822   -1.3910 C   0  0  2  0  0  0
   20.1735  -20.3088   -0.2497 C   0  0  1  0  0  0
   19.5486  -21.7828   -0.1974 C   0  0  2  0  0  0
   18.1585  -21.6634    0.1970 O   0  0
   20.9395  -17.6575   -2.1069 C   0  0
   21.1191  -16.4346   -2.0986 O   0  0
   19.7290  -18.1454   -1.5146 O   0  0
   21.9557  -18.5064   -2.8300 C   0  0
   22.4467  -20.3587    0.5408 C   0  0
   21.9911  -20.4896    1.6828 O   0  0
   21.5837  -20.2350   -0.5729 O   0  0
   23.9271  -20.2839    0.3412 C   0  0
   20.2270  -22.7820    0.7634 C   0  0
   22.2463  -23.9562    0.9804 C   0  0
   21.7146  -24.5444    1.9278 O   0  0
   21.5565  -22.9870    0.2742 O   0  0
   23.6424  -24.3091    0.5504 C   0  0
   16.3583  -18.2169   -2.8799 C   0  0
   15.2476  -18.3724   -2.4148 O   0  0
   17.5620  -18.7432   -2.3460 O   0  0
   16.4659  -17.3856   -4.1096 C   0  0
   15.0235  -18.3142   -0.4625 H   0  0
   12.2927  -18.5156    1.8748 H   0  0
   11.1975  -17.2767    1.1953 H   0  0
   10.7749  -19.7900    0.4254 H   0  0
   10.7883  -18.6230   -0.9223 H   0  0
   12.9921  -19.2959   -1.8102 H   0  0
   12.1490  -20.8271   -1.4749 H   0  0
   17.0347  -17.5638    1.3939 H   0  0
   16.0720  -17.5956    2.8919 H   0  0
   13.8025  -16.7278    2.6252 H   0  0
   15.8204  -19.6424    1.5084 H   0  0
   14.3870  -18.9447    2.3067 H   0  0
   15.4430  -13.2783   -0.4745 H   0  0
   15.3861  -15.9555   -0.7714 H   0  0
   16.8627  -15.3770   -0.0038 H   0  0
   13.2669  -12.9194    0.7160 H   0  0
   13.1653  -14.2744   -0.4069 H   0  0
   13.6415  -14.3633    2.6184 H   0  0
   12.1448  -14.9272    1.8636 H   0  0
   13.7339  -16.2845   -1.4917 H   0  0
   12.1060  -15.9439   -0.8887 H   0  0
   12.4672  -17.4263   -1.7521 H   0  0
   12.8470  -22.0694    0.6355 H   0  0
   12.4572  -20.6604    1.6536 H   0  0
   14.0889  -21.3547    1.7025 H   0  0
   14.5416  -21.8917   -1.3673 H   0  0
   15.1193  -20.2886   -1.7842 H   0  0
   17.3242  -15.0943    2.0334 H   0  0
   15.6718  -11.6191    1.5976 H   0  0
   16.4845  -12.3558    3.0713 H   0  0
   17.4355  -21.6924   -1.7073 H   0  0
   17.7928  -18.9596   -0.1779 H   0  0
   19.5489  -20.1087   -2.3407 H   0  0
   20.0181  -19.7941    0.7087 H   0  0
   19.6177  -22.2423   -1.1934 H   0  0
   21.5026  -19.4296   -3.2095 H   0  0
   22.7394  -18.7766   -2.1090 H   0  0
   22.4285  -17.9187   -3.6282 H   0  0
   24.1626  -19.8764   -0.6525 H   0  0
   24.3355  -21.3005    0.4238 H   0  0
   24.3788  -19.6894    1.1485 H   0  0
   20.2261  -22.4062    1.7948 H   0  0
   19.6887  -23.7390    0.7155 H   0  0
   24.0318  -23.5551   -0.1536 H   0  0
   23.6131  -25.2908    0.0540 H   0  0
   24.2874  -24.4159    1.4317 H   0  0
   17.5015  -17.3646   -4.4770 H   0  0
   16.1223  -16.3676   -3.8675 H   0  0
   15.7762  -17.7748   -4.8699 H   0  0
   16.1485  -15.0463    3.3663 H   0  0
  1  3  1  0
  2  4  1  0
  3  5  1  0
  4  6  1  0
  5  6  1  0
  7  8  1  0
  8 10  1  0
  9  1  1  0
 10  2  1  0
  1  2  1  0
 11 12  1  0
 11 13  1  0
 12  7  1  0
 13 14  1  0
  7  9  1  0
 14  9  1  0
  1 15  1  0
  4 16  1  0
  4 17  1  0
  7 18  1  0
 19 18  1  0
 19 11  1  0
 17 20  1  0
 19 21  2  0
 22 23  1  0
 23 24  1  0
 24 25  1  0
 25 26  1  0
 26 27  1  0
 22 27  1  0
 28 29  2  0
 28 30  1  0
 28 31  1  0
 24 30  1  0
 32 33  2  0
 32 34  1  0
 32 35  1  0
 25 34  1  0
 26 36  1  0
 37 38  2  0
 37 39  1  0
 37 40  1  0
 36 39  1  0
 20 22  1  0
 41 42  2  0
 41 43  1  0
 41 44  1  0
 23 43  1  0
  2 45  1  0
  3 46  1  0
  3 47  1  0
  5 48  1  0
  5 49  1  0
  6 50  1  0
  6 51  1  0
  8 52  1  0
  8 53  1  0
  9 54  1  0
 10 55  1  0
 10 56  1  0
 11 57  1  0
 12 58  1  0
 12 59  1  0
 13 60  1  0
 13 61  1  0
 14 62  1  0
 14 63  1  0
 15 64  1  0
 15 65  1  0
 15 66  1  0
 16 67  1  0
 16 68  1  0
 16 69  1  0
 17 70  1  0
 17 71  1  0
 18 72  1  0
 21 73  1  0
 21 74  1  0
 22 75  1  0
 23 76  1  0
 24 77  1  0
 25 78  1  0
 26 79  1  0
 31 80  1  0
 31 81  1  0
 31 82  1  0
 35 83  1  0
 35 84  1  0
 35 85  1  0
 36 86  1  0
 36 87  1  0
 40 88  1  0
 40 89  1  0
 40 90  1  0
 44 91  1  0
 44 92  1  0
 44 93  1  0
 18 94  1  0
M  END
> <Name>
RB2007a_8a/b-b

> <Clean Energy>
312.342377

$$$$
RB1999_1RS
  DSViewer          3D                             0

 52 55  0  0  0  0  0  0  0  0999 V2000
   -5.1590    2.1201    1.2468 C   0  0
   -6.7380    1.5765    1.3878 C   0  0
   -7.1515    0.3152    0.3624 C   0  0
   -6.0113   -0.5596    0.3092 C   0  0  2  0  0  0
   -4.8560    0.4303   -0.5201 C   0  0  1  0  0  0
   -4.8314    2.0775   -0.1968 C   0  0  2  0  0  0
   -3.3871    2.6503   -0.7452 C   0  0  2  0  0  0
   -3.5230   -0.3062   -0.1353 C   0  0
   -2.3162    0.3497   -0.7671 C   0  0
   -2.0934    1.8048   -0.2762 C   0  0  1  0  0  0
   -1.8945    4.7059   -0.6755 C   0  0
   -3.2324    4.1248   -0.2852 C   0  0
   -0.8381    2.3801   -0.8639 C   0  0
   -0.7723    3.7653   -0.1769 C   0  0  2  0  0  0
   -5.9234    2.9967   -1.0103 C   0  0
   -6.2114   -1.8109   -0.5205 C   0  0
   -8.0660   -0.1653    0.7337 H   0  0
   -1.6535    1.9334    1.2523 C   0  0
   -1.0448    3.3530    1.2559 C   0  0
   -5.7104   -1.1100    1.8081 C   0  0
   -6.5558   -1.7443   -1.8816 O   0  0
   -6.0768   -2.9174    0.0131 O   0  0
   -0.7952    4.0862    2.3383 C   0  0
   -4.9880    0.4231   -1.6094 H   0  0
   -3.3913    2.5663   -1.8398 H   0  0
   -5.0948    3.1199    1.6942 H   0  0
   -4.4563    1.4570    1.7505 H   0  0
   -6.8535    1.3000    2.4448 H   0  0
   -7.4620    2.3726    1.1657 H   0  0
   -7.3117    0.6541   -0.6664 H   0  0
   -3.5826   -1.3469   -0.4740 H   0  0
   -3.3720   -0.2860    0.9455 H   0  0
   -1.4218   -0.2333   -0.5120 H   0  0
   -2.4523    0.3524   -1.8567 H   0  0
   -1.7950    4.8247   -1.7628 H   0  0
   -1.8189    5.6871   -0.1879 H   0  0
   -3.3012    4.1476    0.8024 H   0  0
   -4.0219    4.7637   -0.6792 H   0  0
   -0.8252    2.4416   -1.9601 H   0  0
   -0.0030    1.7573   -0.5164 H   0  0
    0.1852    4.2740   -0.3494 H   0  0
   -5.8424    4.0433   -0.7096 H   0  0
   -6.9511    2.6939   -0.8649 H   0  0
   -5.7024    2.9126   -2.0828 H   0  0
   -2.4089    1.7031    2.0109 H   0  0
   -0.7961    1.2673    1.4124 H   0  0
   -4.8378   -1.7754    1.7795 H   0  0
   -6.5813   -1.6850    2.1505 H   0  0
   -5.5044   -0.3228    2.5293 H   0  0
   -6.6431   -0.8094   -2.1837 H   0  0
   -0.3714    5.0528    2.2366 H   0  0
   -1.0215    3.7032    3.3004 H   0  0
  1  2  1  0  0  0
  2  3  1  0  0  0
  3  4  1  0  0  0
  4  5  1  0  0  0
  5  6  1  0  0  0
  1  6  1  0  0  0
  8  9  1  0  0  0
  9 10  1  0  0  0
  7 10  1  0  0  0
  5  8  1  0  0  0
  7  6  1  0  0  0
 11 12  1  0  0  0
 13 14  1  0  0  0
 11 14  1  0  0  0
 12  7  1  0  0  0
 10 13  1  0  0  0
  6 15  1  0  0  0
  4 16  1  0  0  0
  3 17  1  0  0  0
 10 18  1  0  0  0
  4 20  1  0  0  0
 16 21  1  0  0  0
 16 22  2  0  0  0
 14 19  1  0  0  0
 19 18  1  0  0  0
 23 19  2  0  0  0
  5 24  1  0  0  0
  7 25  1  0  0  0
  1 26  1  0  0  0
  1 27  1  0  0  0
  2 28  1  0  0  0
  2 29  1  0  0  0
  3 30  1  0  0  0
  8 31  1  0  0  0
  8 32  1  0  0  0
  9 33  1  0  0  0
  9 34  1  0  0  0
 11 35  1  0  0  0
 11 36  1  0  0  0
 12 37  1  0  0  0
 12 38  1  0  0  0
 13 39  1  0  0  0
 13 40  1  0  0  0
 14 41  1  0  0  0
 15 42  1  0  0  0
 15 43  1  0  0  0
 15 44  1  0  0  0
 18 45  1  0  0  0
 18 46  1  0  0  0
 20 47  1  0  0  0
 20 48  1  0  0  0
 20 49  1  0  0  0
 21 50  1  0  0  0
 23 51  1  0  0  0
 23 52  1  0  0  0
M  END
> <Clean Energy>
-0.404558

$$$$
RB1999_1SS
  SciTegic12132405553D

 52 55  0  0  0  0            999 V2000
   -5.4988    2.6265    1.0966 C   0  0
   -6.6234    1.8161    2.0145 C   0  0
   -7.3455    0.9608    1.1202 C   0  0
   -6.2589   -0.2084    0.6578 C   0  0  2  0  0  0
   -4.6986    0.4097    0.5172 C   0  0  2  0  0  0
   -4.7675    1.7955   -0.1716 C   0  0  2  0  0  0
   -3.2697    2.3539   -0.7327 C   0  0  2  0  0  0
   -3.7233   -0.4202   -0.1564 C   0  0
   -2.2642    0.2550    0.0382 C   0  0
   -2.1651    1.8656    0.1787 C   0  0  1  0  0  0
   -1.9491    4.4613   -1.1204 C   0  0
   -3.3296    3.8812   -0.8548 C   0  0
   -0.7968    2.3456   -0.2024 C   0  0
   -0.9532    3.8786   -0.0350 C   0  0  2  0  0  0
   -5.5926    1.8850   -1.5480 C   0  0
   -6.7954   -0.9677   -0.6040 C   0  0
   -8.2528    0.4804    1.5094 H   0  0
   -2.1248    2.4969    1.6572 C   0  0
   -1.5841    3.9114    1.3406 C   0  0
   -6.0422   -1.3208    1.7255 C   0  0
   -7.8628   -0.5217   -1.4363 O   0  0
   -6.2602   -2.0423   -0.8983 O   0  0
   -1.6562    4.9701    2.1434 C   0  0
   -4.2887    0.5997    1.5191 H   0  0
   -2.9992    1.8621   -1.6784 H   0  0
   -5.8551    3.5786    0.6829 H   0  0
   -4.7842    2.8413    1.8714 H   0  0
   -6.1486    1.1661    2.7562 H   0  0
   -7.2454    2.5571    2.5338 H   0  0
   -7.6145    1.6283    0.2992 H   0  0
   -4.0317   -0.4260   -1.2092 H   0  0
   -3.6577   -1.4526    0.2077 H   0  0
   -1.6565   -0.1824    0.8407 H   0  0
   -1.8211   -0.0333   -0.9238 H   0  0
   -1.5664    4.2105   -2.1189 H   0  0
   -2.0415    5.5511   -1.0211 H   0  0
   -3.6469    4.2853    0.1011 H   0  0
   -4.0542    4.2050   -1.6098 H   0  0
   -0.4898    2.0749   -1.2213 H   0  0
   -0.0795    1.9405    0.5238 H   0  0
    0.0024    4.4107   -0.1309 H   0  0
   -5.6181    2.9181   -1.9030 H   0  0
   -6.6119    1.5534   -1.4271 H   0  0
   -5.0987    1.2570   -2.3016 H   0  0
   -3.0168    2.4274    2.2648 H   0  0
   -1.3127    2.0021    2.2047 H   0  0
   -5.3262   -2.0653    1.3591 H   0  0
   -7.0020   -1.8147    1.9276 H   0  0
   -5.6585   -0.8739    2.6523 H   0  0
   -8.2429    0.3298   -1.1630 H   0  0
   -1.2508    5.8990    1.8321 H   0  0
   -2.1201    4.8834    3.0926 H   0  0
  1  2  1  0
  2  3  1  0
  3  4  1  0
  4  5  1  0
  5  6  1  0
  1  6  1  0
  8  9  1  0
  9 10  1  0
  7 10  1  0
  5  8  1  0
  7  6  1  0
 11 12  1  0
 13 14  1  0
 11 14  1  0
 12  7  1  0
 10 13  1  0
  6 15  1  0
  4 16  1  0
  3 17  1  0
 10 18  1  0
  4 20  1  0
 16 21  1  0
 16 22  2  0
 14 19  1  0
 19 18  1  0
 23 19  2  0
  5 24  1  0
  7 25  1  0
  1 26  1  0
  1 27  1  0
  2 28  1  0
  2 29  1  0
  3 30  1  0
  8 31  1  0
  8 32  1  0
  9 33  1  0
  9 34  1  0
 11 35  1  0
 11 36  1  0
 12 37  1  0
 12 38  1  0
 13 39  1  0
 13 40  1  0
 14 41  1  0
 15 42  1  0
 15 43  1  0
 15 44  1  0
 18 45  1  0
 18 46  1  0
 20 47  1  0
 20 48  1  0
 20 49  1  0
 21 50  1  0
 23 51  1  0
 23 52  1  0
M  END
> <Name>
RB1999_1SS

> <Clean Energy>
215.573

$$$$
RB1999_1RR
  SciTegic12132405553D

 52 55  0  0  0  0            999 V2000
   -5.0410    1.6991    2.0469 C   0  0
   -6.6173    1.1323    2.1152 C   0  0
   -7.0862    0.1910    0.8110 C   0  0
   -5.9645   -0.6473    0.4937 C   0  0  2  0  0  0
   -4.8270    0.5150   -0.0990 C   0  0  1  0  0  0
   -4.7826    2.0469    0.6308 C   0  0  2  0  0  0
   -3.3854    2.8058    0.2232 C   0  0  1  0  0  0
   -3.4807   -0.3173    0.0833 C   0  0
   -2.2724    0.4200   -0.4224 C   0  0
   -2.0070    1.7809    0.3156 C   0  0  1  0  0  0
   -1.8577    4.2627   -0.6691 C   0  0
   -3.1493    3.3158   -1.0797 C   0  0
   -0.6256    2.3446   -0.3200 C   0  0
   -0.7033    3.5954    0.2997 C   0  0  2  0  0  0
   -5.8951    3.1749    0.2081 C   0  0
   -6.2080   -1.6431   -0.6216 C   0  0
   -7.9941   -0.3650    1.0788 H   0  0
   -1.6112    1.7435    1.7598 C   0  0
   -1.1222    3.1660    1.7496 C   0  0
   -5.6253   -1.5698    1.7916 C   0  0
   -6.6001   -1.2285   -1.9064 O   0  0
   -6.0672   -2.8499   -0.3953 O   0  0
   -1.0426    3.9469    2.8228 C   0  0
   -4.9925    0.7679   -1.1539 H   0  0
   -3.3539    3.7325    0.8138 H   0  0
   -4.9470    2.5488    2.7349 H   0  0
   -4.3220    0.9320    2.3272 H   0  0
   -6.6890    0.5863    3.0657 H   0  0
   -7.3438    1.9557    2.1466 H   0  0
   -7.2772    0.7904   -0.0867 H   0  0
   -3.5647   -1.2600   -0.4698 H   0  0
   -3.3110   -0.5316    1.1408 H   0  0
   -1.3851   -0.2148   -0.3029 H   0  0
   -2.4313    0.6151   -1.4892 H   0  0
   -1.4121    4.5570   -1.6284 H   0  0
   -2.1989    5.1639   -0.1415 H   0  0
   -3.9214    3.9872   -1.4690 H   0  0
   -2.9724    2.5138   -1.7941 H   0  0
   -0.5704    2.4715   -1.4123 H   0  0
    0.1816    1.6858    0.0261 H   0  0
    0.1700    4.2607    0.2853 H   0  0
   -5.7159    4.0800    0.8043 H   0  0
   -6.9222    2.8684    0.3488 H   0  0
   -5.7853    3.4173   -0.8516 H   0  0
   -2.3689    1.4692    2.4899 H   0  0
   -0.7398    1.0851    1.8671 H   0  0
   -4.7666   -2.2141    1.5631 H   0  0
   -6.4951   -2.2060    2.0042 H   0  0
   -5.3821   -0.9988    2.6845 H   0  0
   -6.6880   -0.2474   -1.9552 H   0  0
   -0.6806    4.9390    2.7294 H   0  0
   -1.3424    3.5767    3.7698 H   0  0
  1  2  1  0
  2  3  1  0
  3  4  1  0
  4  5  1  0
  5  6  1  0
  1  6  1  0
  8  9  1  0
  9 10  1  0
  7 10  1  0
  5  8  1  0
  7  6  1  0
 11 12  1  0
 13 14  1  0
 11 14  1  0
 12  7  1  0
 10 13  1  0
  6 15  1  0
  4 16  1  0
  3 17  1  0
 10 18  1  0
  4 20  1  0
 16 21  1  0
 16 22  2  0
 14 19  1  0
 19 18  1  0
 23 19  2  0
  5 24  1  0
  7 25  1  0
  1 26  1  0
  1 27  1  0
  2 28  1  0
  2 29  1  0
  3 30  1  0
  8 31  1  0
  8 32  1  0
  9 33  1  0
  9 34  1  0
 11 35  1  0
 11 36  1  0
 12 37  1  0
 12 38  1  0
 13 39  1  0
 13 40  1  0
 14 41  1  0
 15 42  1  0
 15 43  1  0
 15 44  1  0
 18 45  1  0
 18 46  1  0
 20 47  1  0
 20 48  1  0
 20 49  1  0
 21 50  1  0
 23 51  1  0
 23 52  1  0
M  END
> <Name>
RB1999_1RR

> <Clean Energy>
209.076

$$$$
RB1999_1SR
  SciTegic12132405553D

 52 55  0  0  0  0            999 V2000
   -5.4938    2.2733    1.9593 C   0  0
   -6.5524    1.2427    2.7259 C   0  0
   -7.2859    0.5679    1.6964 C   0  0
   -6.1832   -0.4359    0.9638 C   0  0  2  0  0  0
   -4.6384    0.2474    0.9107 C   0  0  2  0  0  0
   -4.7832    1.7603    0.5214 C   0  0  2  0  0  0
   -3.3624    2.5908    0.0730 C   0  0  1  0  0  0
   -3.6719   -0.4219    0.0717 C   0  0
   -2.2008    0.1840    0.3740 C   0  0
   -2.0747    1.7718    0.7713 C   0  0  1  0  0  0
   -1.6401    3.8266   -0.8147 C   0  0
   -2.7616    2.6681   -1.2317 C   0  0
   -0.5499    2.2063    0.4411 C   0  0
   -0.8014    3.5821    0.6030 C   0  0  2  0  0  0
   -5.6832    2.1182   -0.7522 C   0  0
   -6.7405   -0.9316   -0.4142 C   0  0
   -8.1622   -0.0177    2.0039 H   0  0
   -2.0899    2.1757    2.2231 C   0  0
   -1.6176    3.5626    1.9292 C   0  0
   -5.9098   -1.7399    1.7738 C   0  0
   -7.8509   -0.3609   -1.1010 O   0  0
   -6.1835   -1.8987   -0.9455 O   0  0
   -1.8483    4.6234    2.6971 C   0  0
   -4.2027    0.2438    1.9196 H   0  0
   -3.5406    3.6653    0.2370 H   0  0
   -5.9048    3.2708    1.7582 H   0  0
   -4.7623    2.3621    2.7394 H   0  0
   -6.0268    0.4719    3.2977 H   0  0
   -7.1750    1.8339    3.4104 H   0  0
   -7.6075    1.3830    1.0472 H   0  0
   -3.9979   -0.2214   -0.9570 H   0  0
   -3.5999   -1.5044    0.2260 H   0  0
   -1.6044   -0.3804    1.1019 H   0  0
   -1.7581    0.0310   -0.6190 H   0  0
   -0.9404    3.8580   -1.6604 H   0  0
   -2.1216    4.8087   -0.7111 H   0  0
   -3.4096    3.0927   -2.0089 H   0  0
   -2.3690    1.7247   -1.5806 H   0  0
   -0.1743    2.0257   -0.5780 H   0  0
    0.1074    1.7290    1.1796 H   0  0
    0.0400    4.2872    0.6291 H   0  0
   -5.7438    3.2111   -0.8432 H   0  0
   -6.6843    1.7301   -0.6614 H   0  0
   -5.2314    1.7004   -1.6598 H   0  0
   -2.9856    2.0629    2.7820 H   0  0
   -1.2819    1.6371    2.7341 H   0  0
   -5.1901   -2.3743    1.2451 H   0  0
   -6.8524   -2.2906    1.8931 H   0  0
   -5.5086   -1.4836    2.7633 H   0  0
   -8.2470    0.3982   -0.6417 H   0  0
   -1.4698    5.5727    2.4155 H   0  0
   -2.4115    4.5181    3.5891 H   0  0
  1  2  1  0
  2  3  1  0
  3  4  1  0
  4  5  1  0
  5  6  1  0
  1  6  1  0
  8  9  1  0
  9 10  1  0
  7 10  1  0
  5  8  1  0
  7  6  1  0
 11 12  1  0
 13 14  1  0
 11 14  1  0
 12  7  1  0
 10 13  1  0
  6 15  1  0
  4 16  1  0
  3 17  1  0
 10 18  1  0
  4 20  1  0
 16 21  1  0
 16 22  2  0
 14 19  1  0
 19 18  1  0
 23 19  2  0
  5 24  1  0
  7 25  1  0
  1 26  1  0
  1 27  1  0
  2 28  1  0
  2 29  1  0
  3 30  1  0
  8 31  1  0
  8 32  1  0
  9 33  1  0
  9 34  1  0
 11 35  1  0
 11 36  1  0
 12 37  1  0
 12 38  1  0
 13 39  1  0
 13 40  1  0
 14 41  1  0
 15 42  1  0
 15 43  1  0
 15 44  1  0
 18 45  1  0
 18 46  1  0
 20 47  1  0
 20 48  1  0
 20 49  1  0
 21 50  1  0
 23 51  1  0
 23 52  1  0
M  END
> <Name>
RB1999_1SR

> <Clean Energy>
281.227

$$$$
RB1999_2SSS
  SciTegic12132405553D

 83 87  0  0  0  0            999 V2000
   -9.1767   -4.2378    0.5096 C   0  0
  -10.4356   -5.3021    0.3878 C   0  0
  -10.0547   -6.0403   -0.7330 C   0  0  1  0  0  0
   -8.7447   -6.9790   -0.2612 C   0  0  1  0  0  0
   -7.6373   -6.1974    0.7361 C   0  0  2  0  0  0
   -7.6620   -4.8396    0.1723 C   0  0  2  0  0  0
   -6.4758   -3.8082    0.5876 C   0  0  1  0  0  0
   -6.2667   -6.8574    0.4641 C   0  0
   -5.0337   -6.0245    0.9776 C   0  0
   -5.0835   -4.6355    0.1992 C   0  0  2  0  0  0
   -5.1546   -1.6162   -0.0933 C   0  0
   -6.5105   -2.5195   -0.3031 C   0  0
   -3.7037   -3.7434    0.3420 C   0  0  2  0  0  0
   -3.8296   -2.4727   -0.4808 C   0  0  2  0  0  0
   -2.3588   -1.5506   -0.3467 C   0  0  2  0  0  0
   -2.4020   -4.5713   -0.4119 C   0  0
   -1.1138   -3.6063   -1.1052 C   0  0
   -0.8435   -2.4846   -0.2597 C   0  0  1  0  0  0
   -0.9471    0.4860    0.4916 C   0  0
   -2.1859   -0.4691    0.8108 C   0  0
    0.2791   -1.4813   -0.6818 C   0  0
    0.3782   -0.3152    0.3892 C   0  0
   -4.0704   -2.7940   -2.0952 C   0  0
   -1.1974    1.2741   -0.8360 C   0  0
   -0.8095    1.5195    1.6055 C   0  0
   -0.2485   -3.1877    1.0967 C   0  0
   -3.4169   -3.4377    1.9055 C   0  0
   -6.6648   -3.2671    2.1008 C   0  0
   -7.9289   -6.3006    2.3387 C   0  0
   -9.1106   -8.3317    0.4383 C   0  0
  -11.0572   -6.8862   -1.3249 O   0  0
   -7.5260   -5.0341   -0.9026 H   0  0
   -5.1647   -4.8739   -0.8627 H   0  0
   -2.4637   -0.9856   -1.2711 H   0  0
   -9.3056   -3.3847   -0.1683 H   0  0
   -9.2547   -3.8835    1.5422 H   0  0
  -10.5490   -6.0033    1.2226 H   0  0
  -11.3533   -4.7122    0.2627 H   0  0
   -9.7654   -5.2634   -1.4583 H   0  0
   -8.3059   -7.2035   -1.2422 H   0  0
   -6.1337   -6.8981   -0.6256 H   0  0
   -6.2644   -7.8780    0.8672 H   0  0
   -5.0414   -5.8744    2.0652 H   0  0
   -4.1284   -6.5716    0.6892 H   0  0
   -5.2054   -0.7295   -0.7385 H   0  0
   -5.0879   -1.2942    0.9511 H   0  0
   -7.4181   -1.9436   -0.0820 H   0  0
   -6.5474   -2.8304   -1.3412 H   0  0
   -2.7646   -5.0487   -1.3311 H   0  0
   -2.0797   -5.3654    0.2756 H   0  0
   -0.2380   -4.2401   -1.2957 H   0  0
   -1.4325   -3.1598   -2.0428 H   0  0
   -2.0602   -0.9692    1.7728 H   0  0
   -3.0738    0.1737    0.8474 H   0  0
    0.0409   -1.0593   -1.6652 H   0  0
    1.2353   -2.0177   -0.7392 H   0  0
    0.5938   -0.7457    1.3613 H   0  0
    1.1887    0.3783    0.1290 H   0  0
   -4.1637   -1.8337   -2.6187 H   0  0
   -4.9755   -3.3702   -2.2620 H   0  0
   -3.2639   -3.3388   -2.5486 H   0  0
   -0.3495    1.9492   -1.0142 H   0  0
   -2.1186    1.8633   -0.7336 H   0  0
   -1.2977    0.5965   -1.6895 H   0  0
    0.0337    2.1870    1.3803 H   0  0
   -0.6275    1.0036    2.5585 H   0  0
   -1.7362    2.1057    1.6742 H   0  0
   -0.0499   -2.4470    1.8680 H   0  0
    0.6922   -3.6888    0.8338 H   0  0
   -0.8988   -3.9193    1.5246 H   0  0
   -3.3042   -4.3856    2.4430 H   0  0
   -4.1804   -2.8871    2.3441 H   0  0
   -2.5464   -2.8789    2.0458 H   0  0
   -7.6319   -2.7640    2.1880 H   0  0
   -5.9160   -2.5511    2.3560 H   0  0
   -6.6161   -4.0643    2.8106 H   0  0
   -7.1633   -5.7935    2.8980 H   0  0
   -7.9129   -7.3534    2.6414 H   0  0
   -8.8991   -5.8792    2.6028 H   0  0
   -8.2009   -8.9151    0.6308 H   0  0
   -9.7731   -8.9050   -0.2239 H   0  0
   -9.6338   -8.1439    1.3837 H   0  0
  -11.3947   -7.5398   -0.6702 H   0  0
  1  2  1  0
  2  3  1  0
  3  4  1  0
  4  5  1  0
  5  6  1  0
  1  6  1  0
  8  9  1  0
  9 10  1  0
  7 10  1  0
  5  8  1  0
  7  6  1  0
 11 12  1  0
 13 14  1  0
 11 14  1  0
 12  7  1  0
 10 13  1  0
 16 17  1  0
 17 18  1  0
 15 18  1  0
 13 16  1  0
 15 14  1  0
 19 20  1  0
 21 22  1  0
 19 22  1  0
 20 15  1  0
 18 21  1  0
 14 23  1  0
 19 24  1  0
 19 25  1  0
 18 26  1  0
 13 27  1  0
  7 28  1  0
  5 29  1  0
  4 30  1  0
  3 31  1  0
  6 32  1  0
 10 33  1  0
 15 34  1  0
  1 35  1  0
  1 36  1  0
  2 37  1  0
  2 38  1  0
  3 39  1  0
  4 40  1  0
  8 41  1  0
  8 42  1  0
  9 43  1  0
  9 44  1  0
 11 45  1  0
 11 46  1  0
 12 47  1  0
 12 48  1  0
 16 49  1  0
 16 50  1  0
 17 51  1  0
 17 52  1  0
 20 53  1  0
 20 54  1  0
 21 55  1  0
 21 56  1  0
 22 57  1  0
 22 58  1  0
 23 59  1  0
 23 60  1  0
 23 61  1  0
 24 62  1  0
 24 63  1  0
 24 64  1  0
 25 65  1  0
 25 66  1  0
 25 67  1  0
 26 68  1  0
 26 69  1  0
 26 70  1  0
 27 71  1  0
 27 72  1  0
 27 73  1  0
 28 74  1  0
 28 75  1  0
 28 76  1  0
 29 77  1  0
 29 78  1  0
 29 79  1  0
 30 80  1  0
 30 81  1  0
 30 82  1  0
 31 83  1  0
M  END
> <Name>
RB1999_2SSS

> <Clean Energy>
211.86

$$$$
RB1999_2SRS
  SciTegic12132405553D

 83 87  0  0  0  0            999 V2000
   -8.7463   -4.2335    0.6086 C   0  0
   -9.9555   -5.3456    0.4554 C   0  0
   -9.4123   -6.1900   -0.5121 C   0  0  1  0  0  0
   -8.1489   -7.0204    0.2328 C   0  0  1  0  0  0
   -7.2044   -6.0817    1.2710 C   0  0  2  0  0  0
   -7.1898   -4.8171    0.5408 C   0  0  2  0  0  0
   -6.1139   -3.7020    0.9826 C   0  0  1  0  0  0
   -5.7703   -6.6956    1.2827 C   0  0
   -4.6797   -5.7051    1.9115 C   0  0
   -4.6590   -4.4017    0.9849 C   0  0  1  0  0  0
   -4.7743   -1.5819    0.0238 C   0  0
   -6.0913   -2.5615   -0.1035 C   0  0
   -3.2497   -3.5465    0.9499 C   0  0  2  0  0  0
   -3.3927   -2.4749   -0.1296 C   0  0  2  0  0  0
   -1.9563   -1.5114   -0.1684 C   0  0  2  0  0  0
   -1.9196   -4.4845    0.3908 C   0  0
   -0.6287   -3.6438   -0.4502 C   0  0
   -0.4175   -2.3557    0.1476 C   0  0  1  0  0  0
   -0.6378    0.7061    0.2234 C   0  0
   -1.8545   -0.1960    0.7183 C   0  0
    0.6852   -1.4274   -0.4515 C   0  0
    0.7137   -0.0510    0.3378 C   0  0
   -3.5724   -3.1598   -1.6449 C   0  0
   -0.8690    1.1670   -1.2551 C   0  0
   -0.5684    1.9694    1.0751 C   0  0
    0.1595   -2.7324    1.6301 C   0  0
   -3.0055   -2.8681    2.4761 C   0  0
   -6.4323   -2.9875    2.3808 C   0  0
   -7.7162   -6.0075    2.8203 C   0  0
   -8.5747   -8.2941    1.0324 C   0  0
  -10.3093   -7.1313   -1.1249 O   0  0
   -6.9036   -5.1346   -0.4718 H   0  0
   -4.6371   -3.6057    1.6704 H   0  0
   -2.0495   -1.1681   -1.1976 H   0  0
   -8.8056   -3.4725   -0.1801 H   0  0
   -8.9611   -3.7609    1.5722 H   0  0
  -10.1620   -5.9507    1.3462 H   0  0
  -10.8609   -4.8063    0.1472 H   0  0
   -9.0485   -5.4884   -1.2806 H   0  0
   -7.5789   -7.3380   -0.6485 H   0  0
   -5.4611   -6.8510    0.2399 H   0  0
   -5.7898   -7.6640    1.8040 H   0  0
   -4.8863   -5.4560    2.9514 H   0  0
   -3.7118   -6.2152    1.8355 H   0  0
   -4.8124   -0.8439   -0.7877 H   0  0
   -4.7753   -1.0640    0.9877 H   0  0
   -7.0342   -1.9988   -0.0680 H   0  0
   -6.0316   -3.0384   -1.0699 H   0  0
   -2.2504   -5.1491   -0.4174 H   0  0
   -1.5990   -5.1124    1.2329 H   0  0
    0.2694   -4.2751   -0.4831 H   0  0
   -0.9282   -3.4104   -1.4680 H   0  0
   -1.7450   -0.4613    1.7703 H   0  0
   -2.7624    0.4062    0.5868 H   0  0
    0.4658   -1.2374   -1.5081 H   0  0
    1.6579   -1.9287   -0.3678 H   0  0
    0.9082   -0.2480    1.3882 H   0  0
    1.5114    0.5959   -0.0488 H   0  0
   -3.6793   -2.3439   -2.3725 H   0  0
   -4.4483   -3.7977   -1.7058 H   0  0
   -2.7370   -3.7583   -1.9520 H   0  0
   -0.0371    1.8150   -1.5605 H   0  0
   -1.8107    1.7300   -1.3110 H   0  0
   -0.9218    0.3119   -1.9364 H   0  0
    0.2609    2.5989    0.7242 H   0  0
   -0.4025    1.6913    2.1247 H   0  0
   -1.5145    2.5213    0.9846 H   0  0
    0.3097   -1.8371    2.2312 H   0  0
    1.1254   -3.2399    1.5013 H   0  0
   -0.4795   -3.3839    2.1847 H   0  0
   -2.8973   -3.6628    3.2221 H   0  0
   -3.8281   -2.2131    2.7767 H   0  0
   -2.1337   -2.2706    2.5097 H   0  0
   -7.4146   -2.5041    2.3301 H   0  0
   -5.6934   -2.2261    2.5886 H   0  0
   -6.4236   -3.6933    3.1898 H   0  0
   -7.0560   -5.3978    3.4119 H   0  0
   -7.7074   -7.0157    3.2514 H   0  0
   -8.7264   -5.6077    2.8978 H   0  0
   -7.6858   -8.8163    1.4081 H   0  0
   -9.1301   -8.9630    0.3602 H   0  0
   -9.2240   -8.0199    1.8722 H   0  0
  -10.7166   -7.7162   -0.4464 H   0  0
  1  2  1  0
  2  3  1  0
  3  4  1  0
  4  5  1  0
  5  6  1  0
  1  6  1  0
  8  9  1  0
  9 10  1  0
  7 10  1  0
  5  8  1  0
  7  6  1  0
 11 12  1  0
 13 14  1  0
 11 14  1  0
 12  7  1  0
 10 13  1  0
 16 17  1  0
 17 18  1  0
 15 18  1  0
 13 16  1  0
 15 14  1  0
 19 20  1  0
 21 22  1  0
 19 22  1  0
 20 15  1  0
 18 21  1  0
 14 23  1  0
 19 24  1  0
 19 25  1  0
 18 26  1  0
 13 27  1  0
  7 28  1  0
  5 29  1  0
  4 30  1  0
  3 31  1  0
  6 32  1  0
 10 33  1  0
 15 34  1  0
  1 35  1  0
  1 36  1  0
  2 37  1  0
  2 38  1  0
  3 39  1  0
  4 40  1  0
  8 41  1  0
  8 42  1  0
  9 43  1  0
  9 44  1  0
 11 45  1  0
 11 46  1  0
 12 47  1  0
 12 48  1  0
 16 49  1  0
 16 50  1  0
 17 51  1  0
 17 52  1  0
 20 53  1  0
 20 54  1  0
 21 55  1  0
 21 56  1  0
 22 57  1  0
 22 58  1  0
 23 59  1  0
 23 60  1  0
 23 61  1  0
 24 62  1  0
 24 63  1  0
 24 64  1  0
 25 65  1  0
 25 66  1  0
 25 67  1  0
 26 68  1  0
 26 69  1  0
 26 70  1  0
 27 71  1  0
 27 72  1  0
 27 73  1  0
 28 74  1  0
 28 75  1  0
 28 76  1  0
 29 77  1  0
 29 78  1  0
 29 79  1  0
 30 80  1  0
 30 81  1  0
 30 82  1  0
 31 83  1  0
M  END
> <Name>
RB1999_2SRS

> <Clean Energy>
313.939

$$$$
RB1999_2SRR
  SciTegic12132405553D

 83 87  0  0  0  0            999 V2000
   -8.9839   -4.3320    0.7412 C   0  0
   -9.9807   -5.1738   -0.0777 C   0  0
  -10.1165   -6.6062    0.4588 C   0  0  2  0  0  0
   -8.7355   -7.2959    0.4084 C   0  0  1  0  0  0
   -7.6790   -6.5059    1.3269 C   0  0  2  0  0  0
   -7.5668   -5.0094    0.7110 C   0  0  2  0  0  0
   -6.4136   -4.0684    1.3905 C   0  0  1  0  0  0
   -6.2760   -7.1517    1.1938 C   0  0
   -5.1227   -6.3520    1.9021 C   0  0
   -4.9769   -4.9510    1.1958 C   0  0  2  0  0  0
   -4.9578   -1.8818    1.0176 C   0  0
   -6.3016   -2.7239    0.6178 C   0  0
   -3.6144   -4.1441    1.7198 C   0  0  2  0  0  0
   -3.6292   -2.7333    0.6608 C   0  0  2  0  0  0
   -2.2200   -2.0469    1.0280 C   0  0  1  0  0  0
   -2.1701   -4.9307    1.7296 C   0  0
   -1.4459   -4.7430    0.4960 C   0  0
   -0.9868   -3.0979    0.5045 C   0  0  1  0  0  0
   -1.1173   -0.2103   -0.8111 C   0  0
   -1.6709   -0.5467    0.6490 C   0  0
   -0.4458   -2.7506   -0.9932 C   0  0
    0.0418   -1.2303   -1.0944 C   0  0
   -3.8060   -3.0367   -0.9499 C   0  0
   -2.1193   -0.2008   -1.9580 C   0  0
   -0.5624    1.2112   -0.7869 C   0  0
    0.2407   -2.8719    1.5061 C   0  0
   -3.5860   -3.9310    3.3041 C   0  0
   -6.8114   -3.5979    2.8732 C   0  0
   -8.1400   -6.6234    2.8597 C   0  0
   -8.9279   -8.7881    0.8252 C   0  0
  -11.0293   -7.3116   -0.3784 O   0  0
   -7.2577   -5.1345   -0.3357 H   0  0
   -4.8407   -5.1646    0.1380 H   0  0
   -2.3363   -2.0511    2.0964 H   0  0
   -8.9352   -3.3392    0.2824 H   0  0
   -9.3344   -4.2360    1.7761 H   0  0
  -10.9651   -4.6875   -0.0577 H   0  0
   -9.6197   -5.2241   -1.1141 H   0  0
  -10.5031   -6.5981    1.4835 H   0  0
   -8.3782   -7.2708   -0.6302 H   0  0
   -6.0113   -7.1867    0.1284 H   0  0
   -6.3190   -8.1725    1.5911 H   0  0
   -5.3041   -6.2400    2.9783 H   0  0
   -4.1966   -6.9164    1.7472 H   0  0
   -4.9447   -0.9563    0.4264 H   0  0
   -4.9610   -1.6280    2.0837 H   0  0
   -7.2115   -2.1346    0.7845 H   0  0
   -6.2505   -2.9487   -0.4303 H   0  0
   -2.3108   -5.9557    2.0901 H   0  0
   -1.5173   -4.4388    2.4183 H   0  0
   -0.5418   -5.3538    0.3770 H   0  0
   -2.1520   -4.9989   -0.2876 H   0  0
   -0.7871   -0.3981    1.2724 H   0  0
   -2.4338    0.1859    0.9430 H   0  0
   -1.2284   -2.9089   -1.7267 H   0  0
    0.3940   -3.4196   -1.2212 H   0  0
    0.8231   -1.0802   -0.3483 H   0  0
    0.4590   -1.0209   -2.0882 H   0  0
   -3.8605   -2.1156   -1.4682 H   0  0
   -4.7055   -3.5852   -1.1746 H   0  0
   -2.9996   -3.6195   -1.3419 H   0  0
   -1.5942    0.0909   -2.8774 H   0  0
   -2.9152    0.5253   -1.7452 H   0  0
   -2.5273   -1.1455   -2.1060 H   0  0
   -0.1209    1.4463   -1.7653 H   0  0
    0.2078    1.2867   -0.0069 H   0  0
   -1.3769    1.9160   -0.5708 H   0  0
    0.5861   -1.8382    1.4978 H   0  0
    1.0690   -3.5260    1.2035 H   0  0
   -0.0666   -3.1254    2.5275 H   0  0
   -3.5822   -4.9073    3.8041 H   0  0
   -4.3977   -3.3668    3.6514 H   0  0
   -2.6707   -3.3914    3.5765 H   0  0
   -7.7641   -3.0589    2.8377 H   0  0
   -6.0819   -2.9266    3.2723 H   0  0
   -6.8995   -4.4217    3.5389 H   0  0
   -7.4391   -6.1381    3.5096 H   0  0
   -8.1825   -7.6761    3.1534 H   0  0
   -9.1281   -6.1721    3.0004 H   0  0
   -7.9708   -9.3217    0.7709 H   0  0
   -9.6410   -9.2608    0.1366 H   0  0
   -9.3243   -8.8523    1.8448 H   0  0
  -11.9086   -6.8608   -0.3562 H   0  0
  1  2  1  0
  2  3  1  0
  3  4  1  0
  4  5  1  0
  5  6  1  0
  1  6  1  0
  8  9  1  0
  9 10  1  0
  7 10  1  0
  5  8  1  0
  7  6  1  0
 11 12  1  0
 13 14  1  0
 11 14  1  0
 12  7  1  0
 10 13  1  0
 16 17  1  0
 17 18  1  0
 15 18  1  0
 13 16  1  0
 15 14  1  0
 19 20  1  0
 21 22  1  0
 19 22  1  0
 20 15  1  0
 18 21  1  0
 14 23  1  0
 19 24  1  0
 19 25  1  0
 18 26  1  0
 13 27  1  0
  7 28  1  0
  5 29  1  0
  4 30  1  0
  3 31  1  0
  6 32  1  0
 10 33  1  0
 15 34  1  0
  1 35  1  0
  1 36  1  0
  2 37  1  0
  2 38  1  0
  3 39  1  0
  4 40  1  0
  8 41  1  0
  8 42  1  0
  9 43  1  0
  9 44  1  0
 11 45  1  0
 11 46  1  0
 12 47  1  0
 12 48  1  0
 16 49  1  0
 16 50  1  0
 17 51  1  0
 17 52  1  0
 20 53  1  0
 20 54  1  0
 21 55  1  0
 21 56  1  0
 22 57  1  0
 22 58  1  0
 23 59  1  0
 23 60  1  0
 23 61  1  0
 24 62  1  0
 24 63  1  0
 24 64  1  0
 25 65  1  0
 25 66  1  0
 25 67  1  0
 26 68  1  0
 26 69  1  0
 26 70  1  0
 27 71  1  0
 27 72  1  0
 27 73  1  0
 28 74  1  0
 28 75  1  0
 28 76  1  0
 29 77  1  0
 29 78  1  0
 29 79  1  0
 30 80  1  0
 30 81  1  0
 30 82  1  0
 31 83  1  0
M  END
> <Name>
RB1999_2SRR

> <Clean Energy>
135.471

$$$$
RB1999_2SSR
  SciTegic12132405553D

 83 87  0  0  0  0            999 V2000
   -9.1418   -4.1553    0.4143 C   0  0
  -10.2746   -4.7206   -0.4636 C   0  0
  -10.3891   -6.2486   -0.3592 C   0  0  2  0  0  0
   -9.0560   -6.8853   -0.8103 C   0  0  1  0  0  0
   -7.8521   -6.3989    0.1375 C   0  0  2  0  0  0
   -7.7693   -4.7856   -0.0182 C   0  0  2  0  0  0
   -6.4979   -4.0842    0.7378 C   0  0  1  0  0  0
   -6.5069   -6.9685   -0.3816 C   0  0
   -5.2372   -6.4107    0.3586 C   0  0
   -5.1359   -4.8613    0.0877 C   0  0  2  0  0  0
   -5.0234   -1.8806    0.8330 C   0  0
   -6.4405   -2.5693    0.3920 C   0  0
   -3.6847   -4.2440    0.6311 C   0  0  2  0  0  0
   -3.7881   -2.5789    0.0569 C   0  0  2  0  0  0
   -2.3174   -2.0298    0.4149 C   0  0  1  0  0  0
   -2.2835   -4.9907    0.2017 C   0  0
   -1.7244   -4.4339   -1.0066 C   0  0
   -1.2062   -2.8667   -0.5667 C   0  0  1  0  0  0
   -1.4019    0.2838   -0.9160 C   0  0
   -1.7673   -0.4836    0.4349 C   0  0
   -0.8579   -2.0774   -1.9494 C   0  0
   -0.3309   -0.5960   -1.6531 C   0  0
   -4.1911   -2.3819   -1.5298 C   0  0
   -2.5481    0.6372   -1.8539 C   0  0
   -0.7947    1.6327   -0.5401 C   0  0
    0.1522   -2.9505    0.2756 C   0  0
   -3.4345   -4.5201    2.1863 C   0  0
   -6.6717   -4.0794    2.3343 C   0  0
   -8.0994   -6.9703    1.6170 C   0  0
   -9.2455   -8.4352   -0.8283 C   0  0
  -11.4364   -6.6782   -1.2254 O   0  0
   -7.6133   -4.5916   -1.0881 H   0  0
   -5.1539   -4.7464   -0.9941 H   0  0
   -2.2901   -2.3585    1.4374 H   0  0
   -9.1192   -3.0706    0.2670 H   0  0
   -9.3413   -4.3735    1.4704 H   0  0
  -11.2273   -4.2672   -0.1588 H   0  0
  -10.0642   -4.4589   -1.5096 H   0  0
  -10.6280   -6.5473    0.6672 H   0  0
   -8.8467   -6.5510   -1.8355 H   0  0
   -6.3944   -6.6826   -1.4361 H   0  0
   -6.5332   -8.0615   -0.3022 H   0  0
   -5.2644   -6.6270    1.4337 H   0  0
   -4.3634   -6.8984   -0.0873 H   0  0
   -5.0544   -0.8200    0.5497 H   0  0
   -4.8736   -1.9597    1.9157 H   0  0
   -7.2963   -2.0611    0.8529 H   0  0
   -6.5400   -2.4690   -0.6720 H   0  0
   -2.4134   -6.0773    0.2531 H   0  0
   -1.5259   -4.7281    0.9080 H   0  0
   -0.8682   -4.9756   -1.4288 H   0  0
   -2.5382   -4.4431   -1.7246 H   0  0
   -0.8030   -0.5281    0.9449 H   0  0
   -2.4555    0.1211    1.0396 H   0  0
   -1.7373   -2.0085   -2.5801 H   0  0
   -0.0823   -2.6411   -2.4834 H   0  0
    0.5485   -0.6767   -1.0129 H   0  0
   -0.0430   -0.0917   -2.5849 H   0  0
   -4.2796   -1.3473   -1.7355 H   0  0
   -5.1328   -2.8411   -1.7806 H   0  0
   -3.4672   -2.8154   -2.1871 H   0  0
   -2.1412    1.1977   -2.7062 H   0  0
   -3.2797    1.2601   -1.3221 H   0  0
   -3.0080   -0.2195   -2.2216 H   0  0
   -0.4796    2.1573   -1.4526 H   0  0
    0.0754    1.4700    0.1110 H   0  0
   -1.5453    2.2342   -0.0092 H   0  0
    0.5325   -1.9617    0.5316 H   0  0
    0.9070   -3.4779   -0.3224 H   0  0
   -0.0251   -3.5039    1.2052 H   0  0
   -3.4005   -5.6019    2.3645 H   0  0
   -4.1695   -4.0912    2.7971 H   0  0
   -2.4708   -4.0844    2.4769 H   0  0
   -7.5989   -3.5583    2.5952 H   0  0
   -5.8693   -3.5548    2.8070 H   0  0
   -6.6996   -5.0641    2.7319 H   0  0
   -7.2968   -6.6974    2.2729 H   0  0
   -8.1408   -8.0629    1.5895 H   0  0
   -9.0402   -6.5864    2.0259 H   0  0
   -8.3265   -8.9240   -1.1752 H   0  0
  -10.0654   -8.6857   -1.5146 H   0  0
   -9.4978   -8.8014    0.1734 H   0  0
  -12.2860   -6.2592   -0.9438 H   0  0
  1  2  1  0
  2  3  1  0
  3  4  1  0
  4  5  1  0
  5  6  1  0
  1  6  1  0
  8  9  1  0
  9 10  1  0
  7 10  1  0
  5  8  1  0
  7  6  1  0
 11 12  1  0
 13 14  1  0
 11 14  1  0
 12  7  1  0
 10 13  1  0
 16 17  1  0
 17 18  1  0
 15 18  1  0
 13 16  1  0
 15 14  1  0
 19 20  1  0
 21 22  1  0
 19 22  1  0
 20 15  1  0
 18 21  1  0
 14 23  1  0
 19 24  1  0
 19 25  1  0
 18 26  1  0
 13 27  1  0
  7 28  1  0
  5 29  1  0
  4 30  1  0
  3 31  1  0
  6 32  1  0
 10 33  1  0
 15 34  1  0
  1 35  1  0
  1 36  1  0
  2 37  1  0
  2 38  1  0
  3 39  1  0
  4 40  1  0
  8 41  1  0
  8 42  1  0
  9 43  1  0
  9 44  1  0
 11 45  1  0
 11 46  1  0
 12 47  1  0
 12 48  1  0
 16 49  1  0
 16 50  1  0
 17 51  1  0
 17 52  1  0
 20 53  1  0
 20 54  1  0
 21 55  1  0
 21 56  1  0
 22 57  1  0
 22 58  1  0
 23 59  1  0
 23 60  1  0
 23 61  1  0
 24 62  1  0
 24 63  1  0
 24 64  1  0
 25 65  1  0
 25 66  1  0
 25 67  1  0
 26 68  1  0
 26 69  1  0
 26 70  1  0
 27 71  1  0
 27 72  1  0
 27 73  1  0
 28 74  1  0
 28 75  1  0
 28 76  1  0
 29 77  1  0
 29 78  1  0
 29 79  1  0
 30 80  1  0
 30 81  1  0
 30 82  1  0
 31 83  1  0
M  END
> <Name>
RB1999_2SSR

> <Clean Energy>
135.427

$$$$
RB1999_2RRR
  SciTegic12132405553D

 83 87  0  0  0  0            999 V2000
   -9.2762   -4.0163    0.9968 C   0  0
  -10.1686   -5.0639    0.6287 C   0  0
   -9.9030   -5.3641   -0.9318 C   0  0  2  0  0  0
   -8.3700   -5.1848   -1.4125 C   0  0  1  0  0  0
   -7.4523   -5.7072   -0.3468 C   0  0  2  0  0  0
   -7.7335   -4.7266    1.0154 C   0  0  1  0  0  0
   -6.5970   -3.6248    1.2674 C   0  0  1  0  0  0
   -5.9244   -5.6379   -0.8467 C   0  0
   -5.0054   -5.7510    0.3320 C   0  0
   -5.0799   -4.4879    1.3870 C   0  0  1  0  0  0
   -5.2103   -1.4590    0.2819 C   0  0
   -6.5228   -2.4786    0.1123 C   0  0
   -3.7511   -3.4050    1.4566 C   0  0  2  0  0  0
   -3.8043   -2.2696    0.1077 C   0  0  2  0  0  0
   -2.4086   -1.4541    0.3229 C   0  0  1  0  0  0
   -2.2997   -4.0985    1.7048 C   0  0
   -1.5393   -4.1649    0.4568 C   0  0
   -1.1276   -2.5485    0.0875 C   0  0  1  0  0  0
   -1.2890   -0.0488   -1.8724 C   0  0
   -1.8942   -0.0605   -0.3833 C   0  0
   -0.5413   -2.5382   -1.4357 C   0  0
   -0.0917   -1.0632   -1.8716 C   0  0
   -3.9050   -2.8048   -1.3695 C   0  0
   -2.2321   -0.3417   -3.0392 C   0  0
   -0.7777    1.3614   -2.1551 C   0  0
    0.0567   -2.0526    1.0411 C   0  0
   -3.7580   -2.7447    2.9114 C   0  0
   -7.0034   -2.8268    2.5788 C   0  0
   -7.7779   -7.2604   -0.0201 C   0  0
   -8.2758   -5.8011   -2.8331 C   0  0
  -10.5900   -4.4575   -1.7902 O   0  0
   -7.5893   -5.3919    1.8775 H   0  0
   -5.0167   -5.0697    2.3152 H   0  0
   -2.5395   -1.2154    1.3494 H   0  0
   -9.3784   -3.2218    0.2419 H   0  0
   -9.4946   -3.6092    1.9892 H   0  0
   -9.8456   -5.8912    1.2709 H   0  0
  -11.2412   -4.8824    0.7795 H   0  0
  -10.2799   -6.3863   -1.0748 H   0  0
   -8.1073   -4.1259   -1.4687 H   0  0
   -5.7442   -4.7181   -1.2535 H   0  0
   -5.7689   -6.4021   -1.6187 H   0  0
   -5.4287   -6.6052    0.8394 H   0  0
   -3.9563   -5.9880    0.1210 H   0  0
   -5.2529   -0.6879   -0.4988 H   0  0
   -5.2498   -0.9770    1.2647 H   0  0
   -7.4638   -1.9154    0.1288 H   0  0
   -6.4351   -2.9409   -0.8494 H   0  0
   -2.4272   -5.0102    2.3027 H   0  0
   -1.6822   -3.4287    2.2653 H   0  0
   -0.6141   -4.7538    0.4999 H   0  0
   -2.2169   -4.6139   -0.2699 H   0  0
   -1.0368    0.2601    0.2118 H   0  0
   -2.6879    0.6917   -0.2866 H   0  0
   -1.2917   -2.8909   -2.1359 H   0  0
    0.3253   -3.2107   -1.4761 H   0  0
    0.6535   -0.7170   -1.1548 H   0  0
    0.3605   -1.0725   -2.8721 H   0  0
   -3.9686   -1.9699   -2.0160 H   0  0
   -4.7416   -3.3526   -1.5236 H   0  0
   -3.0725   -3.4183   -1.6430 H   0  0
   -1.6667   -0.2447   -3.9756 H   0  0
   -3.0580    0.3822   -3.0345 H   0  0
   -2.6092   -1.3186   -2.9891 H   0  0
   -0.2989    1.3838   -3.1438 H   0  0
   -0.0465    1.6433   -1.3848 H   0  0
   -1.6216    2.0646   -2.1377 H   0  0
    0.3720   -1.0371    0.8023 H   0  0
    0.9136   -2.7286    0.9215 H   0  0
   -0.2787   -2.0737    2.0845 H   0  0
   -3.7109   -3.5435    3.6630 H   0  0
   -4.5939   -2.1554    3.0846 H   0  0
   -2.8803   -2.1009    3.0271 H   0  0
   -7.9639   -2.3317    2.4437 H   0  0
   -6.3079   -2.0660    2.8081 H   0  0
   -7.0721   -3.5288    3.4205 H   0  0
   -7.1079   -7.6144    0.7700 H   0  0
   -7.6140   -7.8616   -0.9236 H   0  0
   -8.8011   -7.4049    0.3184 H   0  0
   -7.2626   -5.6784   -3.2358 H   0  0
   -8.9889   -5.2905   -3.4940 H   0  0
   -8.5247   -6.8699   -2.7885 H   0  0
  -11.5581   -4.4938   -1.5962 H   0  0
  1  2  1  0
  2  3  1  0
  3  4  1  0
  4  5  1  0
  5  6  1  0
  1  6  1  0
  8  9  1  0
  9 10  1  0
  7 10  1  0
  5  8  1  0
  7  6  1  0
 11 12  1  0
 13 14  1  0
 11 14  1  0
 12  7  1  0
 10 13  1  0
 16 17  1  0
 17 18  1  0
 15 18  1  0
 13 16  1  0
 15 14  1  0
 19 20  1  0
 21 22  1  0
 19 22  1  0
 20 15  1  0
 18 21  1  0
 14 23  1  0
 19 24  1  0
 19 25  1  0
 18 26  1  0
 13 27  1  0
  7 28  1  0
  5 29  1  0
  4 30  1  0
  3 31  1  0
  6 32  1  0
 10 33  1  0
 15 34  1  0
  1 35  1  0
  1 36  1  0
  2 37  1  0
  2 38  1  0
  3 39  1  0
  4 40  1  0
  8 41  1  0
  8 42  1  0
  9 43  1  0
  9 44  1  0
 11 45  1  0
 11 46  1  0
 12 47  1  0
 12 48  1  0
 16 49  1  0
 16 50  1  0
 17 51  1  0
 17 52  1  0
 20 53  1  0
 20 54  1  0
 21 55  1  0
 21 56  1  0
 22 57  1  0
 22 58  1  0
 23 59  1  0
 23 60  1  0
 23 61  1  0
 24 62  1  0
 24 63  1  0
 24 64  1  0
 25 65  1  0
 25 66  1  0
 25 67  1  0
 26 68  1  0
 26 69  1  0
 26 70  1  0
 27 71  1  0
 27 72  1  0
 27 73  1  0
 28 74  1  0
 28 75  1  0
 28 76  1  0
 29 77  1  0
 29 78  1  0
 29 79  1  0
 30 80  1  0
 30 81  1  0
 30 82  1  0
 31 83  1  0
M  END
> <Name>
RB1999_2RRR

> <Clean Energy>
291.219

$$$$
RB1999_2RSS
  SciTegic12132405553D

 83 87  0  0  0  0            999 V2000
   -9.2111   -3.4139    0.8894 C   0  0
   -9.4909   -3.1504   -0.6395 C   0  0
   -9.2549   -4.4604   -1.4564 C   0  0  2  0  0  0
   -7.7738   -5.0080   -1.2168 C   0  0  1  0  0  0
   -7.5893   -5.3019    0.3823 C   0  0  2  0  0  0
   -7.7341   -4.0071    1.0981 C   0  0  1  0  0  0
   -6.4094   -2.9061    0.7051 C   0  0  1  0  0  0
   -6.1911   -5.8774    0.9687 C   0  0
   -4.9741   -4.8798    1.3494 C   0  0
   -4.9646   -3.8530    0.3885 C   0  0  2  0  0  0
   -5.0094   -1.0359   -0.6725 C   0  0
   -6.3786   -1.9121   -0.5779 C   0  0
   -3.5945   -2.9725    0.2618 C   0  0  2  0  0  0
   -3.7279   -1.9703   -0.8496 C   0  0  2  0  0  0
   -2.2515   -1.0597   -0.9941 C   0  0  2  0  0  0
   -2.3141   -3.9830   -0.2780 C   0  0
   -1.0378   -3.2484   -1.2181 C   0  0
   -0.7445   -1.9528   -0.6951 C   0  0  1  0  0  0
   -0.8094    1.1102   -0.7437 C   0  0
   -2.0462    0.2859   -0.1627 C   0  0
    0.3775   -1.1086   -1.3837 C   0  0
    0.5077    0.2946   -0.6572 C   0  0
   -4.0190   -2.7002   -2.3173 C   0  0
   -1.0830    1.5269   -2.2260 C   0  0
   -0.6416    2.3971    0.0586 C   0  0
   -0.1332   -2.2824    0.7903 C   0  0
   -3.2928   -2.2742    1.6874 C   0  0
   -6.5724   -1.9631    1.9630 C   0  0
   -8.6074   -6.4437    0.8042 C   0  0
   -7.5642   -6.2770   -2.0797 C   0  0
   -9.4563   -4.1865   -2.8399 O   0  0
   -7.5925   -4.3031    2.1473 H   0  0
   -5.0740   -4.3652   -0.5660 H   0  0
   -2.3740   -0.7543   -2.0317 H   0  0
   -9.3411   -2.4882    1.4628 H   0  0
   -9.9412   -4.1498    1.2402 H   0  0
  -10.5210   -2.7980   -0.7809 H   0  0
   -8.8270   -2.4037   -1.0035 H   0  0
   -9.9775   -5.2153   -1.1385 H   0  0
   -7.0639   -4.2828   -1.5481 H   0  0
   -5.8902   -6.7052    0.3149 H   0  0
   -6.3893   -6.2841    1.9686 H   0  0
   -5.0886   -4.3947    2.3268 H   0  0
   -4.0714   -5.5021    1.3504 H   0  0
   -5.0664   -0.3606   -1.5359 H   0  0
   -4.9098   -0.4400    0.2413 H   0  0
   -7.2402   -1.2383   -0.5099 H   0  0
   -6.4700   -2.4908   -1.4804 H   0  0
   -2.6986   -4.6789   -1.0345 H   0  0
   -1.9821   -4.5754    0.5858 H   0  0
   -0.1706   -3.9203   -1.2537 H   0  0
   -1.3735   -3.0548   -2.2342 H   0  0
   -1.9024    0.0533    0.8939 H   0  0
   -2.9291    0.9263   -0.2780 H   0  0
    0.1228   -0.9551   -2.4389 H   0  0
    1.3281   -1.6535   -1.3157 H   0  0
    0.7404    0.1302    0.3897 H   0  0
    1.3176    0.8859   -1.1043 H   0  0
   -4.1188   -1.9090   -3.0714 H   0  0
   -4.9368   -3.2851   -2.3038 H   0  0
   -3.2299   -3.3584   -2.6335 H   0  0
   -0.2350    2.1222   -2.5907 H   0  0
   -1.9982    2.1331   -2.2638 H   0  0
   -1.2058    0.6511   -2.8707 H   0  0
    0.2008    2.9728   -0.3491 H   0  0
   -0.4428    2.1461    1.1097 H   0  0
   -1.5630    2.9916   -0.0109 H   0  0
    0.0835   -1.3673    1.3369 H   0  0
    0.7993   -2.8459    0.6557 H   0  0
   -0.7824   -2.8680    1.4048 H   0  0
   -3.1758   -3.0507    2.4522 H   0  0
   -4.0614   -1.6271    1.9721 H   0  0
   -2.4182   -1.6987    1.6707 H   0  0
   -7.5495   -1.4720    1.9254 H   0  0
   -5.8164   -1.1945    1.9823 H   0  0
   -6.5032   -2.5668    2.8779 H   0  0
   -8.5137   -6.6104    1.8854 H   0  0
   -8.3651   -7.3754    0.2812 H   0  0
   -9.6406   -6.1685    0.5818 H   0  0
   -6.5467   -6.6609   -1.9220 H   0  0
   -7.6946   -6.0149   -3.1382 H   0  0
   -8.2930   -7.0500   -1.8124 H   0  0
  -10.3768   -3.8537   -2.9765 H   0  0
  1  2  1  0
  2  3  1  0
  3  4  1  0
  4  5  1  0
  5  6  1  0
  1  6  1  0
  8  9  1  0
  9 10  1  0
  7 10  1  0
  5  8  1  0
  7  6  1  0
 11 12  1  0
 13 14  1  0
 11 14  1  0
 12  7  1  0
 10 13  1  0
 16 17  1  0
 17 18  1  0
 15 18  1  0
 13 16  1  0
 15 14  1  0
 19 20  1  0
 21 22  1  0
 19 22  1  0
 20 15  1  0
 18 21  1  0
 14 23  1  0
 19 24  1  0
 19 25  1  0
 18 26  1  0
 13 27  1  0
  7 28  1  0
  5 29  1  0
  4 30  1  0
  3 31  1  0
  6 32  1  0
 10 33  1  0
 15 34  1  0
  1 35  1  0
  1 36  1  0
  2 37  1  0
  2 38  1  0
  3 39  1  0
  4 40  1  0
  8 41  1  0
  8 42  1  0
  9 43  1  0
  9 44  1  0
 11 45  1  0
 11 46  1  0
 12 47  1  0
 12 48  1  0
 16 49  1  0
 16 50  1  0
 17 51  1  0
 17 52  1  0
 20 53  1  0
 20 54  1  0
 21 55  1  0
 21 56  1  0
 22 57  1  0
 22 58  1  0
 23 59  1  0
 23 60  1  0
 23 61  1  0
 24 62  1  0
 24 63  1  0
 24 64  1  0
 25 65  1  0
 25 66  1  0
 25 67  1  0
 26 68  1  0
 26 69  1  0
 26 70  1  0
 27 71  1  0
 27 72  1  0
 27 73  1  0
 28 74  1  0
 28 75  1  0
 28 76  1  0
 29 77  1  0
 29 78  1  0
 29 79  1  0
 30 80  1  0
 30 81  1  0
 30 82  1  0
 31 83  1  0
M  END
> <Name>
RB1999_2RSS

> <Clean Energy>
210.718

$$$$
RB1999_2RSR
  SciTegic12132405553D

 83 87  0  0  0  0            999 V2000
   -9.1637   -3.1453    0.3592 C   0  0
  -10.1036   -3.9646   -0.2210 C   0  0
   -9.3632   -4.3639   -1.6835 C   0  0  2  0  0  0
   -7.7220   -4.7000   -1.5850 C   0  0  1  0  0  0
   -7.5890   -5.4263   -0.2853 C   0  0  2  0  0  0
   -7.8899   -4.1766    0.7106 C   0  0  1  0  0  0
   -6.5309   -3.0963    0.8576 C   0  0  1  0  0  0
   -6.2478   -6.0573    0.3657 C   0  0
   -5.1704   -5.1758    1.1810 C   0  0
   -5.0145   -3.9656    0.4995 C   0  0  2  0  0  0
   -5.0931   -0.9284    0.1335 C   0  0
   -6.4551   -1.7948   -0.0741 C   0  0
   -3.6649   -3.0980    0.8724 C   0  0  2  0  0  0
   -3.7958   -1.7702   -0.2663 C   0  0  2  0  0  0
   -2.3810   -1.0316   -0.0590 C   0  0  1  0  0  0
   -2.2051   -3.8517    0.8240 C   0  0
   -1.5845   -3.7364   -0.4742 C   0  0
   -1.1685   -2.0883   -0.6115 C   0  0  1  0  0  0
   -1.4781    0.7019   -2.0940 C   0  0
   -1.9031    0.4513   -0.5760 C   0  0
   -0.7600   -1.8312   -2.1673 C   0  0
   -0.3206   -0.3111   -2.4061 C   0  0
   -4.1014   -2.1841   -1.8334 C   0  0
   -2.5699    0.6155   -3.1515 C   0  0
   -0.9592    2.1329   -2.2060 C   0  0
    0.1295   -1.7719    0.2698 C   0  0
   -3.5420   -2.7840    2.4273 C   0  0
   -6.8290   -2.5153    2.3031 C   0  0
   -8.4703   -6.7937   -0.3670 C   0  0
   -7.2590   -5.3945   -2.8794 C   0  0
   -9.4330   -3.3261   -2.6586 O   0  0
   -7.9918   -4.7672    1.6315 H   0  0
   -4.9363   -4.2551   -0.5452 H   0  0
   -2.4119   -0.9676    1.0140 H   0  0
   -8.9465   -2.4465   -0.4515 H   0  0
   -9.4658   -2.5895    1.2552 H   0  0
  -10.2090   -4.8148    0.4634 H   0  0
  -11.0897   -3.5227   -0.4168 H   0  0
   -9.9408   -5.2327   -2.0253 H   0  0
   -7.1597   -3.8361   -1.4861 H   0  0
   -5.7861   -6.6703   -0.4190 H   0  0
   -6.5634   -6.7213    1.1801 H   0  0
   -5.4663   -4.9396    2.2087 H   0  0
   -4.2610   -5.7874    1.1941 H   0  0
   -5.1425   -0.0512   -0.5253 H   0  0
   -5.0137   -0.5933    1.1744 H   0  0
   -7.3269   -1.1647    0.1316 H   0  0
   -6.5072   -2.0960   -1.0995 H   0  0
   -2.2963   -4.8534    1.2605 H   0  0
   -1.5146   -3.3017    1.4277 H   0  0
   -0.6776   -4.3360   -0.6248 H   0  0
   -2.3439   -4.0591   -1.1796 H   0  0
   -0.9762    0.6585   -0.0377 H   0  0
   -2.6584    1.1858   -0.2681 H   0  0
   -1.5958   -2.0537   -2.8216 H   0  0
    0.0752   -2.4969   -2.4202 H   0  0
    0.5146   -0.0966   -1.7381 H   0  0
    0.0093   -0.1594   -3.4422 H   0  0
   -4.2180   -1.3013   -2.4049 H   0  0
   -5.0088   -2.7598   -1.9440 H   0  0
   -3.3175   -2.7806   -2.2530 H   0  0
   -2.1293    0.8564   -4.1281 H   0  0
   -3.3640    1.3380   -2.9201 H   0  0
   -2.9643   -0.3448   -3.2038 H   0  0
   -0.6044    2.3125   -3.2302 H   0  0
   -0.1305    2.2747   -1.4983 H   0  0
   -1.7712    2.8339   -1.9685 H   0  0
    0.4472   -0.7345    0.1663 H   0  0
    0.9470   -2.4283   -0.0565 H   0  0
   -0.0882   -1.9627    1.3272 H   0  0
   -3.4768   -3.7265    2.9859 H   0  0
   -4.3484   -2.2215    2.7871 H   0  0
   -2.6284   -2.2034    2.6046 H   0  0
   -7.7929   -2.0053    2.3160 H   0  0
   -6.0826   -1.7991    2.5960 H   0  0
   -6.8486   -3.3414    3.0264 H   0  0
   -8.4500   -7.2717    0.6209 H   0  0
   -8.0124   -7.4726   -1.0980 H   0  0
   -9.5093   -6.6436   -0.6378 H   0  0
   -6.1864   -5.6234   -2.8032 H   0  0
   -7.4310   -4.7218   -3.7305 H   0  0
   -7.8225   -6.3234   -3.0329 H   0  0
  -10.3783   -3.0793   -2.8061 H   0  0
  1  2  1  0
  2  3  1  0
  3  4  1  0
  4  5  1  0
  5  6  1  0
  1  6  1  0
  8  9  1  0
  9 10  1  0
  7 10  1  0
  5  8  1  0
  7  6  1  0
 11 12  1  0
 13 14  1  0
 11 14  1  0
 12  7  1  0
 10 13  1  0
 16 17  1  0
 17 18  1  0
 15 18  1  0
 13 16  1  0
 15 14  1  0
 19 20  1  0
 21 22  1  0
 19 22  1  0
 20 15  1  0
 18 21  1  0
 14 23  1  0
 19 24  1  0
 19 25  1  0
 18 26  1  0
 13 27  1  0
  7 28  1  0
  5 29  1  0
  4 30  1  0
  3 31  1  0
  6 32  1  0
 10 33  1  0
 15 34  1  0
  1 35  1  0
  1 36  1  0
  2 37  1  0
  2 38  1  0
  3 39  1  0
  4 40  1  0
  8 41  1  0
  8 42  1  0
  9 43  1  0
  9 44  1  0
 11 45  1  0
 11 46  1  0
 12 47  1  0
 12 48  1  0
 16 49  1  0
 16 50  1  0
 17 51  1  0
 17 52  1  0
 20 53  1  0
 20 54  1  0
 21 55  1  0
 21 56  1  0
 22 57  1  0
 22 58  1  0
 23 59  1  0
 23 60  1  0
 23 61  1  0
 24 62  1  0
 24 63  1  0
 24 64  1  0
 25 65  1  0
 25 66  1  0
 25 67  1  0
 26 68  1  0
 26 69  1  0
 26 70  1  0
 27 71  1  0
 27 72  1  0
 27 73  1  0
 28 74  1  0
 28 75  1  0
 28 76  1  0
 29 77  1  0
 29 78  1  0
 29 79  1  0
 30 80  1  0
 30 81  1  0
 30 82  1  0
 31 83  1  0
M  END
> <Name>
RB1999_2RSR

> <Clean Energy>
284.308

$$$$
RB1999_2RRS
  SciTegic12132405553D

 83 87  0  0  0  0            999 V2000
   -9.1606   -3.5997    0.9538 C   0  0
  -10.1613   -4.6095    0.8683 C   0  0
   -9.9866   -5.3089   -0.5734 C   0  0  2  0  0  0
   -8.4639   -5.4074   -1.1078 C   0  0  1  0  0  0
   -7.5541   -5.7381    0.0417 C   0  0  2  0  0  0
   -7.6859   -4.4302    1.1315 C   0  0  1  0  0  0
   -6.4466   -3.4088    1.0763 C   0  0  1  0  0  0
   -6.0413   -5.9587   -0.4805 C   0  0
   -5.1318   -5.8527    0.6894 C   0  0
   -4.9745   -4.3356    1.3681 C   0  0  1  0  0  0
   -4.9772   -1.7285   -0.5159 C   0  0
   -6.3209   -2.6489   -0.3850 C   0  0
   -3.5983   -3.3739    0.9520 C   0  0  2  0  0  0
   -3.6234   -2.6234   -0.3851 C   0  0  2  0  0  0
   -2.1687   -1.6698   -0.5688 C   0  0  2  0  0  0
   -2.1958   -4.3613    0.8273 C   0  0
   -0.8514   -3.7752   -0.1242 C   0  0
   -0.6745   -2.3697    0.0936 C   0  0  1  0  0  0
   -0.8493    0.5883   -0.6982 C   0  0
   -2.1159   -0.1533   -0.0707 C   0  0
    0.4883   -1.6387   -0.6542 C   0  0
    0.4774   -0.0975   -0.2775 C   0  0
   -3.6641   -3.5676   -1.6976 C   0  0
   -0.9586    0.6252   -2.2580 C   0  0
   -0.8263    2.0362   -0.2178 C   0  0
   -0.2316   -2.2984    1.6721 C   0  0
   -3.4744   -2.3135    2.1497 C   0  0
   -6.7463   -2.2567    2.1453 C   0  0
   -8.0221   -7.1273    0.7466 C   0  0
   -8.4829   -6.3625   -2.3298 C   0  0
  -10.6197   -4.5776   -1.6198 O   0  0
   -7.5706   -4.8707    2.1312 H   0  0
   -4.8245   -4.6756    2.4005 H   0  0
   -2.1771   -1.6191   -1.6555 H   0  0
   -9.2165   -3.0100    0.0262 H   0  0
   -9.3057   -2.9410    1.8156 H   0  0
   -9.8934   -5.2821    1.6910 H   0  0
  -11.2053   -4.2892    0.9844 H   0  0
  -10.4625   -6.2917   -0.4516 H   0  0
   -8.1096   -4.4290   -1.4321 H   0  0
   -5.7615   -5.1979   -1.1200 H   0  0
   -5.9957   -6.9125   -1.0215 H   0  0
   -5.6457   -6.4614    1.4127 H   0  0
   -4.1408   -6.2900    0.5561 H   0  0
   -4.9678   -1.2273   -1.4925 H   0  0
   -5.0006   -0.9694    0.2733 H   0  0
   -7.2206   -2.0418   -0.5413 H   0  0
   -6.2666   -3.3735   -1.1729 H   0  0
   -2.4324   -5.2515    0.2373 H   0  0
   -1.9368   -4.6819    1.8454 H   0  0
    0.0434   -4.3694    0.1015 H   0  0
   -1.0662   -3.8592   -1.1839 H   0  0
   -2.0919   -0.1194    1.0201 H   0  0
   -3.0014    0.3830   -0.4328 H   0  0
    0.3562   -1.7550   -1.7363 H   0  0
    1.4442   -2.0883   -0.3552 H   0  0
    0.5897    0.0046    0.7968 H   0  0
    1.3120    0.4232   -0.7650 H   0  0
   -3.6765   -2.9149   -2.5797 H   0  0
   -4.5149   -4.1494   -1.7185 H   0  0
   -2.8172   -4.2225   -1.7765 H   0  0
   -0.0955    1.1710   -2.6625 H   0  0
   -1.8843    1.1452   -2.5392 H   0  0
   -0.9712   -0.3840   -2.6812 H   0  0
    0.0369    2.5526   -0.6600 H   0  0
   -0.7453    2.0537    0.8779 H   0  0
   -1.7542    2.5368   -0.5273 H   0  0
   -0.1166   -1.2682    2.0011 H   0  0
    0.7311   -2.8155    1.7781 H   0  0
   -0.9272   -2.7637    2.3370 H   0  0
   -3.3974   -2.8666    3.0941 H   0  0
   -4.2770   -1.6781    2.1955 H   0  0
   -2.6384   -1.7035    2.0621 H   0  0
   -7.6702   -1.7365    1.9008 H   0  0
   -5.9934   -1.5210    2.1631 H   0  0
   -6.8382   -2.7086    3.1418 H   0  0
   -7.3623   -7.3495    1.5910 H   0  0
   -7.9534   -7.9437    0.0162 H   0  0
   -9.0404   -7.0776    1.1235 H   0  0
   -7.4793   -6.4435   -2.7657 H   0  0
   -9.1719   -5.9637   -3.0864 H   0  0
   -8.8266   -7.3571   -2.0156 H   0  0
  -11.5786   -4.4681   -1.4081 H   0  0
  1  2  1  0
  2  3  1  0
  3  4  1  0
  4  5  1  0
  5  6  1  0
  1  6  1  0
  8  9  1  0
  9 10  1  0
  7 10  1  0
  5  8  1  0
  7  6  1  0
 11 12  1  0
 13 14  1  0
 11 14  1  0
 12  7  1  0
 10 13  1  0
 16 17  1  0
 17 18  1  0
 15 18  1  0
 13 16  1  0
 15 14  1  0
 19 20  1  0
 21 22  1  0
 19 22  1  0
 20 15  1  0
 18 21  1  0
 14 23  1  0
 19 24  1  0
 19 25  1  0
 18 26  1  0
 13 27  1  0
  7 28  1  0
  5 29  1  0
  4 30  1  0
  3 31  1  0
  6 32  1  0
 10 33  1  0
 15 34  1  0
  1 35  1  0
  1 36  1  0
  2 37  1  0
  2 38  1  0
  3 39  1  0
  4 40  1  0
  8 41  1  0
  8 42  1  0
  9 43  1  0
  9 44  1  0
 11 45  1  0
 11 46  1  0
 12 47  1  0
 12 48  1  0
 16 49  1  0
 16 50  1  0
 17 51  1  0
 17 52  1  0
 20 53  1  0
 20 54  1  0
 21 55  1  0
 21 56  1  0
 22 57  1  0
 22 58  1  0
 23 59  1  0
 23 60  1  0
 23 61  1  0
 24 62  1  0
 24 63  1  0
 24 64  1  0
 25 65  1  0
 25 66  1  0
 25 67  1  0
 26 68  1  0
 26 69  1  0
 26 70  1  0
 27 71  1  0
 27 72  1  0
 27 73  1  0
 28 74  1  0
 28 75  1  0
 28 76  1  0
 29 77  1  0
 29 78  1  0
 29 79  1  0
 30 80  1  0
 30 81  1  0
 30 82  1  0
 31 83  1  0
M  END
> <Name>
RB1999_2RRS

> <Clean Energy>
288.402

$$$$
RB1999_4SSS
  SciTegic12132405553D

 86 90  0  0  0  0            999 V2000
   -5.2538   -5.3686    1.9426 C   0  0
   -6.5758   -6.2625    1.6611 C   0  0
   -6.2710   -6.5965    0.0765 C   0  0  1  0  0  0
   -5.0047   -7.5245   -0.1952 C   0  0
   -4.1130   -7.5042    1.1316 C   0  0  2  0  0  0
   -3.9048   -6.1857    1.8968 C   0  0  1  0  0  0
   -2.6394   -5.2077    1.3462 C   0  0  1  0  0  0
   -2.6749   -8.3225    1.0988 C   0  0
   -1.5659   -7.5096    0.3386 C   0  0
   -1.2423   -6.1015    1.0700 C   0  0  1  0  0  0
   -2.8786   -4.4100    0.1441 C   0  0
   -1.6085   -3.4261    0.1222 C   0  0
   -0.3132   -3.8485    0.1749 C   0  0
   -0.1157   -5.3038    0.0676 C   0  0  1  0  0  0
    0.8484   -2.8687   -0.1566 C   0  0  2  0  0  0
    1.3644   -5.8251    0.3150 C   0  0
    2.4440   -4.8921   -0.3336 C   0  0
    2.2634   -3.4233    0.2879 C   0  0  1  0  0  0
    1.7626   -0.4458   -0.1903 C   0  0
    0.6366   -1.3921    0.3658 C   0  0
    3.3602   -2.4688   -0.2908 C   0  0
    3.1574   -0.9926    0.2369 C   0  0
   -0.3368   -5.5044   -1.5438 C   0  0
    1.6677   -0.3223   -1.7478 C   0  0
   -4.4953   -7.1520   -1.6020 C   0  0
   -5.4147   -9.0176   -0.2404 C   0  0
   -0.6157   -6.2957    2.5170 C   0  0
   -3.7968   -6.7332    3.3883 C   0  0
    2.4261   -3.4664    1.8904 C   0  0
    1.5699    0.9569    0.3789 C   0  0
   -7.3380   -7.1334   -0.7316 O   0  0
   -8.4565   -6.2891   -0.8191 C   0  0
   -9.6427   -6.7323   -1.6165 C   0  0
   -8.4673   -5.1743   -0.2850 O   0  0
   -2.4725   -4.3774    2.0450 H   0  0
   -4.8022   -8.0443    1.7832 H   0  0
    0.8555   -2.8372   -1.2487 H   0  0
   -5.3136   -4.7352    1.0748 H   0  0
   -5.2589   -4.7188    2.8273 H   0  0
   -6.7210   -7.1416    2.3072 H   0  0
   -7.4477   -5.6009    1.7250 H   0  0
   -6.0219   -5.6016   -0.2931 H   0  0
   -2.8233   -9.3002    0.6311 H   0  0
   -2.3004   -8.4856    2.1069 H   0  0
   -0.6384   -8.0924    0.2669 H   0  0
   -1.9545   -7.3350   -0.6541 H   0  0
   -3.7757   -3.7925    0.2404 H   0  0
   -2.9527   -5.0457   -0.7182 H   0  0
   -1.8040   -2.3973    0.0102 H   0  0
    1.4485   -6.8707   -0.0092 H   0  0
    1.5922   -5.7868    1.3559 H   0  0
    3.4408   -5.2766   -0.0816 H   0  0
    2.3372   -4.8472   -1.4232 H   0  0
    0.6588   -1.4012    1.4610 H   0  0
   -0.3284   -0.9968    0.0278 H   0  0
    3.2901   -2.4714   -1.3835 H   0  0
    4.3500   -2.8395    0.0059 H   0  0
    3.2204   -0.9877    1.3274 H   0  0
    3.9392   -0.3359   -0.1668 H   0  0
   -0.2143   -6.5627   -1.8026 H   0  0
    0.4012   -4.9242   -2.1041 H   0  0
   -1.3253   -5.1834   -1.8570 H   0  0
    2.4523    0.3608   -2.1000 H   0  0
    0.6827    0.0847   -2.0134 H   0  0
    1.7951   -1.2943   -2.2347 H   0  0
   -3.6400   -7.7880   -1.8634 H   0  0
   -4.1974   -6.1121   -1.6268 H   0  0
   -5.3040   -7.3104   -2.3279 H   0  0
   -4.5379   -9.6462   -0.4260 H   0  0
   -6.1382   -9.1666   -1.0530 H   0  0
   -5.8769   -9.3032    0.7143 H   0  0
   -0.3943   -5.3073    2.9439 H   0  0
    0.3053   -6.8787    2.4563 H   0  0
   -1.2610   -6.8116    3.1635 H   0  0
   -3.7242   -5.8764    4.0706 H   0  0
   -2.9470   -7.3703    3.5434 H   0  0
   -4.7019   -7.3061    3.6278 H   0  0
    2.3167   -2.4705    2.3248 H   0  0
    3.4238   -3.8539    2.1344 H   0  0
    1.6685   -4.1118    2.3421 H   0  0
    2.3573    1.6181   -0.0085 H   0  0
    1.6296    0.9150    1.4753 H   0  0
    0.5851    1.3396    0.0773 H   0  0
  -10.4307   -5.9655   -1.6070 H   0  0
  -10.0126   -7.6814   -1.2024 H   0  0
   -9.3170   -6.9482   -2.6443 H   0  0
  1  2  1  0
  2  3  1  0
  3  4  1  0
  4  5  1  0
  5  6  1  0
  1  6  1  0
  8  9  1  0
  9 10  1  0
  7 10  1  0
  5  8  1  0
  7  6  1  0
 11 12  1  0
 12 13  2  0
 13 14  1  0
  7 11  1  0
 10 14  1  0
 16 17  1  0
 17 18  1  0
 15 18  1  0
 15 13  1  0
 14 16  1  0
 19 20  1  0
 21 22  1  0
 19 22  1  0
 20 15  1  0
 18 21  1  0
 14 23  1  0
 19 24  1  0
  4 25  1  0
  4 26  1  0
 10 27  1  0
  6 28  1  0
 18 29  1  0
 19 30  1  0
  3 31  1  0
 31 32  1  0
 32 33  1  0
 34 32  2  0
  7 35  1  0
  5 36  1  0
 15 37  1  0
  1 38  1  0
  1 39  1  0
  2 40  1  0
  2 41  1  0
  3 42  1  0
  8 43  1  0
  8 44  1  0
  9 45  1  0
  9 46  1  0
 11 47  1  0
 11 48  1  0
 12 49  1  0
 16 50  1  0
 16 51  1  0
 17 52  1  0
 17 53  1  0
 20 54  1  0
 20 55  1  0
 21 56  1  0
 21 57  1  0
 22 58  1  0
 22 59  1  0
 23 60  1  0
 23 61  1  0
 23 62  1  0
 24 63  1  0
 24 64  1  0
 24 65  1  0
 25 66  1  0
 25 67  1  0
 25 68  1  0
 26 69  1  0
 26 70  1  0
 26 71  1  0
 27 72  1  0
 27 73  1  0
 27 74  1  0
 28 75  1  0
 28 76  1  0
 28 77  1  0
 29 78  1  0
 29 79  1  0
 29 80  1  0
 30 81  1  0
 30 82  1  0
 30 83  1  0
 33 84  1  0
 33 85  1  0
 33 86  1  0
M  END
> <Name>
RB1999_4SSS

> <Clean Energy>
228.651

$$$$
RB1999_4SRS
  SciTegic12132405553D

 86 90  0  0  0  0            999 V2000
   -5.3032   -5.0677    0.4380 C   0  0
   -6.6724   -5.7926    0.7486 C   0  0
   -6.5666   -7.2972    0.2394 C   0  0  1  0  0  0
   -5.4516   -8.0946    0.9855 C   0  0
   -4.0644   -7.2809    0.7233 C   0  0  1  0  0  0
   -4.1078   -5.7244    1.1811 C   0  0  1  0  0  0
   -2.7013   -5.0803    0.6345 C   0  0  2  0  0  0
   -2.7857   -7.9984    1.3643 C   0  0
   -1.5030   -7.3068    0.7814 C   0  0
   -1.3709   -5.7875    1.1195 C   0  0  1  0  0  0
   -2.5797   -3.5519    1.0238 C   0  0
   -1.2706   -2.8758    0.6249 C   0  0
   -0.1339   -3.5537    0.3343 C   0  0
   -0.1254   -5.0995    0.2515 C   0  0  1  0  0  0
    1.1559   -2.7976   -0.1743 C   0  0  2  0  0  0
    1.2742   -5.7002    0.7036 C   0  0
    2.4879   -4.9797    0.0477 C   0  0
    2.4676   -3.4485    0.4207 C   0  0  1  0  0  0
    2.4136   -0.5607   -0.5651 C   0  0
    1.1574   -1.2343    0.0822 C   0  0
    3.7064   -2.7610   -0.2403 C   0  0
    3.7003   -1.2094    0.0249 C   0  0
   -0.2694   -5.3777   -1.3199 C   0  0
    2.3790   -0.6953   -2.1237 C   0  0
   -5.3517   -9.4963    0.3564 C   0  0
   -5.8537   -8.3788    2.4752 C   0  0
   -1.0523   -5.6466    2.6888 C   0  0
   -4.3541   -5.4412    2.7535 C   0  0
    2.5531   -3.2657    2.0095 C   0  0
    2.4068    0.9317   -0.2466 C   0  0
   -7.8001   -8.0283    0.4197 O   0  0
   -8.8659   -7.5493   -0.3628 C   0  0
  -10.2035   -8.2116   -0.2547 C   0  0
   -8.7114   -6.6222   -1.1668 O   0  0
   -2.7329   -5.2138   -0.4430 H   0  0
   -3.9375   -7.2846   -0.3678 H   0  0
    1.1950   -2.9725   -1.2517 H   0  0
   -5.1350   -5.1626   -0.6433 H   0  0
   -5.3605   -4.0058    0.7066 H   0  0
   -6.9086   -5.7630    1.8173 H   0  0
   -7.4647   -5.2771    0.1944 H   0  0
   -6.3107   -7.2649   -0.8282 H   0  0
   -2.7494   -9.0411    1.0357 H   0  0
   -2.8226   -7.9648    2.4610 H   0  0
   -0.5967   -7.8278    1.1136 H   0  0
   -1.6094   -7.4227   -0.2984 H   0  0
   -2.6105   -3.4643    2.1124 H   0  0
   -3.4250   -2.9721    0.6346 H   0  0
   -1.2757   -1.8272    0.5981 H   0  0
    1.2961   -6.7753    0.4874 H   0  0
    1.3951   -5.5663    1.7666 H   0  0
    3.4153   -5.4293    0.4252 H   0  0
    2.4535   -5.0854   -1.0424 H   0  0
    1.1608   -1.0558    1.1630 H   0  0
    0.2617   -0.7763   -0.3566 H   0  0
    3.6729   -2.9382   -1.3202 H   0  0
    4.6227   -3.2073    0.1675 H   0  0
    3.7263   -1.0284    1.1031 H   0  0
    4.5813   -0.7440   -0.4363 H   0  0
   -0.2505   -6.4559   -1.5110 H   0  0
    0.5511   -4.9135   -1.8726 H   0  0
   -1.2115   -4.9617   -1.6901 H   0  0
    3.2620   -0.1960   -2.5448 H   0  0
    1.4694   -0.2105   -2.5030 H   0  0
    2.3796   -1.7453   -2.4341 H   0  0
   -4.5675  -10.0790    0.8543 H   0  0
   -5.1149   -9.3969   -0.7117 H   0  0
   -6.3141  -10.0133    0.4727 H   0  0
   -5.0643   -8.9686    2.9593 H   0  0
   -6.7887   -8.9549    2.4798 H   0  0
   -6.0137   -7.4799    3.0279 H   0  0
   -0.9478   -4.5915    2.9657 H   0  0
   -0.1210   -6.1659    2.9250 H   0  0
   -1.8205   -6.0930    3.2806 H   0  0
   -4.3611   -4.3611    2.9319 H   0  0
   -3.5994   -5.8922    3.3543 H   0  0
   -5.2968   -5.8239    3.0758 H   0  0
    2.5592   -2.2077    2.2837 H   0  0
    3.4788   -3.7329    2.3699 H   0  0
    1.6961   -3.7381    2.5003 H   0  0
    3.2909    1.4038   -0.6968 H   0  0
    2.4291    1.0703    0.8432 H   0  0
    1.4955    1.3872   -0.6580 H   0  0
  -10.9358   -7.7275   -0.9168 H   0  0
  -10.5338   -8.1755    0.7935 H   0  0
  -10.0913   -9.2756   -0.5083 H   0  0
  1  2  1  0
  2  3  1  0
  3  4  1  0
  4  5  1  0
  5  6  1  0
  1  6  1  0
  8  9  1  0
  9 10  1  0
  7 10  1  0
  5  8  1  0
  7  6  1  0
 11 12  1  0
 12 13  2  0
 13 14  1  0
  7 11  1  0
 10 14  1  0
 16 17  1  0
 17 18  1  0
 15 18  1  0
 15 13  1  0
 14 16  1  0
 19 20  1  0
 21 22  1  0
 19 22  1  0
 20 15  1  0
 18 21  1  0
 14 23  1  0
 19 24  1  0
  4 25  1  0
  4 26  1  0
 10 27  1  0
  6 28  1  0
 18 29  1  0
 19 30  1  0
  3 31  1  0
 31 32  1  0
 32 33  1  0
 34 32  2  0
  7 35  1  0
  5 36  1  0
 15 37  1  0
  1 38  1  0
  1 39  1  0
  2 40  1  0
  2 41  1  0
  3 42  1  0
  8 43  1  0
  8 44  1  0
  9 45  1  0
  9 46  1  0
 11 47  1  0
 11 48  1  0
 12 49  1  0
 16 50  1  0
 16 51  1  0
 17 52  1  0
 17 53  1  0
 20 54  1  0
 20 55  1  0
 21 56  1  0
 21 57  1  0
 22 58  1  0
 22 59  1  0
 23 60  1  0
 23 61  1  0
 23 62  1  0
 24 63  1  0
 24 64  1  0
 24 65  1  0
 25 66  1  0
 25 67  1  0
 25 68  1  0
 26 69  1  0
 26 70  1  0
 26 71  1  0
 27 72  1  0
 27 73  1  0
 27 74  1  0
 28 75  1  0
 28 76  1  0
 28 77  1  0
 29 78  1  0
 29 79  1  0
 29 80  1  0
 30 81  1  0
 30 82  1  0
 30 83  1  0
 33 84  1  0
 33 85  1  0
 33 86  1  0
M  END
> <Name>
RB1999_4SRS

> <Clean Energy>
70.6832

$$$$
RB1999_4SRR
  SciTegic12132405553D

 86 90  0  0  0  0            999 V2000
   -5.3722   -5.0758    0.9132 C   0  0
   -6.7301   -5.8397    1.1747 C   0  0
   -6.6976   -7.2076    0.3614 C   0  0  1  0  0  0
   -5.5488   -8.1494    0.8391 C   0  0
   -4.1662   -7.3091    0.6420 C   0  0  1  0  0  0
   -4.1395   -5.8795    1.4103 C   0  0  1  0  0  0
   -2.7634   -5.1450    0.9020 C   0  0  2  0  0  0
   -2.8609   -8.1544    1.0220 C   0  0
   -1.6085   -7.3702    0.4961 C   0  0
   -1.4107   -5.9538    1.1288 C   0  0  1  0  0  0
   -2.5856   -3.7274    1.5849 C   0  0
   -1.2805   -3.0022    1.2727 C   0  0
   -0.1896   -3.6062    0.7780 C   0  0
   -0.2133   -5.1102    0.3298 C   0  0  1  0  0  0
    1.0423   -2.6876    0.5435 C   0  0  1  0  0  0
    1.2057   -5.8093    0.5038 C   0  0
    2.3698   -4.9655   -0.1078 C   0  0
    2.4485   -3.5609    0.6212 C   0  0  1  0  0  0
    2.3071   -0.9359   -0.6754 C   0  0
    1.1118   -2.0512   -0.7646 C   0  0
    3.7295   -2.8371   -0.1249 C   0  0
    3.5959   -1.4357    0.1862 C   0  0
   -0.5095   -5.0662   -1.2501 C   0  0
    2.6061   -0.6321   -2.1579 C   0  0
   -5.5288   -9.3923   -0.0696 C   0  0
   -5.8454   -8.7316    2.2656 C   0  0
   -0.9696   -6.1444    2.6587 C   0  0
   -4.2584   -5.9270    3.0213 C   0  0
    2.6835   -3.7409    2.1743 C   0  0
    1.9090    0.3814    0.0199 C   0  0
   -7.9305   -7.9515    0.4840 O   0  0
   -9.0408   -7.3141   -0.0980 C   0  0
  -10.3814   -7.9751   -0.0234 C   0  0
   -8.9259   -6.2425   -0.7047 O   0  0
   -2.8758   -5.0537   -0.1722 H   0  0
   -4.1211   -7.0893   -0.4333 H   0  0
    1.0018   -1.8295    1.2157 H   0  0
   -5.2878   -4.9466   -0.1743 H   0  0
   -5.3855   -4.0918    1.3976 H   0  0
   -6.8846   -6.0292    2.2420 H   0  0
   -7.5499   -5.2155    0.8016 H   0  0
   -6.5217   -6.9579   -0.6936 H   0  0
   -2.8747   -9.1071    0.4848 H   0  0
   -2.8158   -8.3476    2.1017 H   0  0
   -0.6936   -7.9576    0.6423 H   0  0
   -1.7991   -7.2617   -0.5720 H   0  0
   -2.5496   -3.8692    2.6674 H   0  0
   -3.4389   -3.0699    1.3802 H   0  0
   -1.2124   -1.9722    1.5115 H   0  0
    1.1709   -6.8081    0.0520 H   0  0
    1.4306   -5.9189    1.5554 H   0  0
    3.3199   -5.4948    0.0394 H   0  0
    2.2061   -4.8164   -1.1799 H   0  0
    0.2063   -1.5331   -1.1048 H   0  0
    1.3425   -2.8600   -1.4569 H   0  0
    3.6601   -2.8951   -1.2140 H   0  0
    4.6523   -3.3338    0.2018 H   0  0
    3.4024   -1.4061    1.2552 H   0  0
    4.4486   -0.7822   -0.0398 H   0  0
   -0.5337   -6.0829   -1.6544 H   0  0
    0.2649   -4.5110   -1.7711 H   0  0
   -1.4684   -4.5782   -1.4429 H   0  0
    3.4003    0.1243   -2.2206 H   0  0
    1.6954   -0.2511   -2.6397 H   0  0
    2.9314   -1.5504   -2.6656 H   0  0
   -4.7234  -10.0709    0.2358 H   0  0
   -5.3701   -9.0768   -1.1098 H   0  0
   -6.4915   -9.9150    0.0129 H   0  0
   -5.0361   -9.4143    2.5559 H   0  0
   -6.7905   -9.2893    2.2246 H   0  0
   -5.9431   -7.9647    3.0014 H   0  0
   -0.8187   -5.1704    3.1376 H   0  0
   -0.0348   -6.7082    2.7043 H   0  0
   -1.7020   -6.6980    3.2060 H   0  0
   -4.2279   -4.9076    3.4190 H   0  0
   -3.4691   -6.4972    3.4538 H   0  0
   -5.1818   -6.3625    3.3316 H   0  0
    2.7877   -2.7554    2.6448 H   0  0
    3.6020   -4.3208    2.3342 H   0  0
    1.8384   -4.2620    2.6386 H   0  0
    2.7535    1.0825   -0.0218 H   0  0
    1.6505    0.1813    1.0689 H   0  0
    1.0425    0.8168   -0.4962 H   0  0
  -11.1370   -7.3929   -0.5703 H   0  0
  -10.6625   -8.0813    1.0343 H   0  0
  -10.2983   -8.9948   -0.4265 H   0  0
  1  2  1  0
  2  3  1  0
  3  4  1  0
  4  5  1  0
  5  6  1  0
  1  6  1  0
  8  9  1  0
  9 10  1  0
  7 10  1  0
  5  8  1  0
  7  6  1  0
 11 12  1  0
 12 13  2  0
 13 14  1  0
  7 11  1  0
 10 14  1  0
 16 17  1  0
 17 18  1  0
 15 18  1  0
 15 13  1  0
 14 16  1  0
 19 20  1  0
 21 22  1  0
 19 22  1  0
 20 15  1  0
 18 21  1  0
 14 23  1  0
 19 24  1  0
  4 25  1  0
  4 26  1  0
 10 27  1  0
  6 28  1  0
 18 29  1  0
 19 30  1  0
  3 31  1  0
 31 32  1  0
 32 33  1  0
 34 32  2  0
  7 35  1  0
  5 36  1  0
 15 37  1  0
  1 38  1  0
  1 39  1  0
  2 40  1  0
  2 41  1  0
  3 42  1  0
  8 43  1  0
  8 44  1  0
  9 45  1  0
  9 46  1  0
 11 47  1  0
 11 48  1  0
 12 49  1  0
 16 50  1  0
 16 51  1  0
 17 52  1  0
 17 53  1  0
 20 54  1  0
 20 55  1  0
 21 56  1  0
 21 57  1  0
 22 58  1  0
 22 59  1  0
 23 60  1  0
 23 61  1  0
 23 62  1  0
 24 63  1  0
 24 64  1  0
 24 65  1  0
 25 66  1  0
 25 67  1  0
 25 68  1  0
 26 69  1  0
 26 70  1  0
 26 71  1  0
 27 72  1  0
 27 73  1  0
 27 74  1  0
 28 75  1  0
 28 76  1  0
 28 77  1  0
 29 78  1  0
 29 79  1  0
 29 80  1  0
 30 81  1  0
 30 82  1  0
 30 83  1  0
 33 84  1  0
 33 85  1  0
 33 86  1  0
M  END
> <Name>
RB1999_4SRR

> <Clean Energy>
133.508

$$$$
RB1999_4SSR
  SciTegic12132405553D

 86 90  0  0  0  0            999 V2000
   -5.3186   -5.5356    2.6891 C   0  0
   -6.6182   -6.4524    2.3794 C   0  0
   -6.2738   -6.7786    0.8014 C   0  0  1  0  0  0
   -4.9853   -7.6830    0.5565 C   0  0
   -4.1234   -7.6494    1.9024 C   0  0  2  0  0  0
   -3.9547   -6.3279    2.6703 C   0  0  1  0  0  0
   -2.7003   -5.3261    2.1474 C   0  0  1  0  0  0
   -2.6709   -8.4433    1.9013 C   0  0
   -1.5621   -7.6133    1.1643 C   0  0
   -1.2749   -6.1971    1.8995 C   0  0  1  0  0  0
   -2.9264   -4.5174    0.9387 C   0  0
   -1.6674   -3.5160    0.9943 C   0  0
   -0.3749   -3.9187    1.0658 C   0  0
   -0.1416   -5.3811    0.9197 C   0  0  1  0  0  0
    0.7406   -2.8507    0.9322 C   0  0  1  0  0  0
    1.3444   -5.8969    1.1736 C   0  0
    2.4114   -4.9669    0.5092 C   0  0
    2.2558   -3.5004    1.1461 C   0  0  1  0  0  0
    1.8221   -1.0024   -0.3360 C   0  0
    0.8072   -2.2810   -0.4090 C   0  0
    3.4620   -2.6453    0.4101 C   0  0
    3.1141   -1.2578    0.6157 C   0  0
   -0.3540   -5.5968   -0.6973 C   0  0
    2.1616   -0.7490   -1.8190 C   0  0
   -4.4513   -7.2974   -0.8374 C   0  0
   -5.3676   -9.1829    0.4998 C   0  0
   -0.6689   -6.3794    3.3558 C   0  0
   -3.8632   -6.8722    4.1636 C   0  0
    2.4346   -3.5269    2.7225 C   0  0
    1.2012    0.2815    0.2477 C   0  0
   -7.3131   -7.3334   -0.0301 O   0  0
   -8.4446   -6.5093   -0.1407 C   0  0
   -9.6051   -6.9725   -0.9640 C   0  0
   -8.4870   -5.3957    0.3944 O   0  0
   -2.5655   -4.4955    2.8528 H   0  0
   -4.8165   -8.2021    2.5393 H   0  0
    0.5185   -1.9681    1.5339 H   0  0
   -5.3713   -4.9026    1.8207 H   0  0
   -5.3535   -4.8867    3.5738 H   0  0
   -6.7611   -7.3348    3.0215 H   0  0
   -7.5029   -5.8066    2.4256 H   0  0
   -6.0349   -5.7789    0.4382 H   0  0
   -2.7928   -9.4236    1.4312 H   0  0
   -2.3146   -8.5999    2.9169 H   0  0
   -0.6241   -8.1809    1.1112 H   0  0
   -1.9356   -7.4491    0.1655 H   0  0
   -3.8363   -3.9161    1.0191 H   0  0
   -2.9635   -5.1446    0.0681 H   0  0
   -1.8610   -2.4749    0.9620 H   0  0
    1.4286   -6.9407    0.8439 H   0  0
    1.5737   -5.8595    2.2193 H   0  0
    3.4163   -5.3499    0.7280 H   0  0
    2.2734   -4.9210   -0.5753 H   0  0
   -0.1389   -1.9220   -0.8335 H   0  0
    1.1936   -3.0908   -1.0326 H   0  0
    3.4644   -2.7824   -0.6744 H   0  0
    4.4257   -2.9803    0.8152 H   0  0
    2.8570   -1.1891    1.6680 H   0  0
    3.8779   -0.5034    0.3861 H   0  0
   -0.2144   -6.6539   -0.9504 H   0  0
    0.3757   -5.0120   -1.2570 H   0  0
   -1.3428   -5.2917   -1.0178 H   0  0
    2.8430    0.1094   -1.8941 H   0  0
    1.2360   -0.5340   -2.3702 H   0  0
    2.6428   -1.6395   -2.2461 H   0  0
   -3.5792   -7.9172   -1.0813 H   0  0
   -4.1713   -6.2522   -0.8523 H   0  0
   -5.2405   -7.4679   -1.5819 H   0  0
   -4.4758   -9.7954    0.3325 H   0  0
   -6.0702   -9.3431   -0.3289 H   0  0
   -5.8456   -9.4786    1.4436 H   0  0
   -0.4721   -5.3873    3.7857 H   0  0
    0.2633   -6.9456    3.3102 H   0  0
   -1.3170   -6.9068    3.9922 H   0  0
   -3.8203   -6.0136    4.8462 H   0  0
   -3.0038   -7.4916    4.3353 H   0  0
   -4.7610   -7.4628    4.3869 H   0  0
    2.3730   -2.5048    3.1153 H   0  0
    3.4168   -3.9528    2.9663 H   0  0
    1.6493   -4.1279    3.1940 H   0  0
    1.9385    1.0944    0.2003 H   0  0
    0.9129    0.1089    1.2939 H   0  0
    0.3133    0.5544   -0.3386 H   0  0
  -10.4098   -6.2231   -0.9647 H   0  0
   -9.9617   -7.9329   -0.5646 H   0  0
   -9.2548   -7.1726   -1.9869 H   0  0
  1  2  1  0
  2  3  1  0
  3  4  1  0
  4  5  1  0
  5  6  1  0
  1  6  1  0
  8  9  1  0
  9 10  1  0
  7 10  1  0
  5  8  1  0
  7  6  1  0
 11 12  1  0
 12 13  2  0
 13 14  1  0
  7 11  1  0
 10 14  1  0
 16 17  1  0
 17 18  1  0
 15 18  1  0
 15 13  1  0
 14 16  1  0
 19 20  1  0
 21 22  1  0
 19 22  1  0
 20 15  1  0
 18 21  1  0
 14 23  1  0
 19 24  1  0
  4 25  1  0
  4 26  1  0
 10 27  1  0
  6 28  1  0
 18 29  1  0
 19 30  1  0
  3 31  1  0
 31 32  1  0
 32 33  1  0
 34 32  2  0
  7 35  1  0
  5 36  1  0
 15 37  1  0
  1 38  1  0
  1 39  1  0
  2 40  1  0
  2 41  1  0
  3 42  1  0
  8 43  1  0
  8 44  1  0
  9 45  1  0
  9 46  1  0
 11 47  1  0
 11 48  1  0
 12 49  1  0
 16 50  1  0
 16 51  1  0
 17 52  1  0
 17 53  1  0
 20 54  1  0
 20 55  1  0
 21 56  1  0
 21 57  1  0
 22 58  1  0
 22 59  1  0
 23 60  1  0
 23 61  1  0
 23 62  1  0
 24 63  1  0
 24 64  1  0
 24 65  1  0
 25 66  1  0
 25 67  1  0
 25 68  1  0
 26 69  1  0
 26 70  1  0
 26 71  1  0
 27 72  1  0
 27 73  1  0
 27 74  1  0
 28 75  1  0
 28 76  1  0
 28 77  1  0
 29 78  1  0
 29 79  1  0
 29 80  1  0
 30 81  1  0
 30 82  1  0
 30 83  1  0
 33 84  1  0
 33 85  1  0
 33 86  1  0
M  END
> <Name>
RB1999_4SSR

> <Clean Energy>
288.092

$$$$
RB1999_4RRR
  SciTegic12132405553D

 86 90  0  0  0  0            999 V2000
   -5.4208   -5.0448    0.5238 C   0  0
   -6.7894   -5.8219    0.6604 C   0  0
   -6.7460   -7.0831   -0.3098 C   0  0  1  0  0  0
   -5.6151   -8.0858    0.0784 C   0  0
   -4.2228   -7.2408    0.0155 C   0  0  1  0  0  0
   -4.2056   -5.9135    0.9497 C   0  0  1  0  0  0
   -2.8131   -5.1362    0.5649 C   0  0  2  0  0  0
   -2.9325   -8.1374    0.3218 C   0  0
   -1.6628   -7.3075   -0.0774 C   0  0
   -1.4713   -5.9786    0.7245 C   0  0  1  0  0  0
   -2.6428   -3.8120    1.4163 C   0  0
   -1.3261   -3.0666    1.2232 C   0  0
   -0.2276   -3.6171    0.6851 C   0  0
   -0.2498   -5.0566    0.0600 C   0  0  1  0  0  0
    1.0153   -2.6882    0.5905 C   0  0  1  0  0  0
    1.1602   -5.7842    0.1819 C   0  0
    2.3438   -4.8840   -0.2975 C   0  0
    2.4137   -3.5771    0.5957 C   0  0  1  0  0  0
    2.3196   -0.8150   -0.3810 C   0  0
    1.1199   -1.9009   -0.6303 C   0  0
    3.7167   -2.7810   -0.0290 C   0  0
    3.5843   -1.4256    0.4440 C   0  0
   -0.5078   -4.8217   -1.5098 C   0  0
    2.6557   -0.3393   -1.8093 C   0  0
   -5.5811   -9.2114   -0.9717 C   0  0
   -5.9499   -8.8315    1.4178 C   0  0
   -1.0684   -6.3544    2.2304 C   0  0
   -4.3636   -6.1520    2.5402 C   0  0
    2.6104   -3.9432    2.1211 C   0  0
    1.9130    0.4134    0.4573 C   0  0
   -7.9863   -7.8247   -0.3059 O   0  0
   -9.0778   -7.1119   -0.8335 C   0  0
  -10.4241   -7.7642   -0.8700 C   0  0
   -8.9409   -5.9767   -1.3050 O   0  0
   -2.8990   -4.9163   -0.4930 H   0  0
   -4.1503   -6.8945   -1.0244 H   0  0
    0.9640   -1.9161    1.3593 H   0  0
   -5.3092   -4.7875   -0.5382 H   0  0
   -5.4395   -4.1257    1.1220 H   0  0
   -6.9709   -6.1361    1.6935 H   0  0
   -7.5959   -5.1500    0.3457 H   0  0
   -6.5430   -6.7107   -1.3229 H   0  0
   -2.9393   -9.0190   -0.3257 H   0  0
   -2.9146   -8.4585    1.3714 H   0  0
   -0.7554   -7.9164    0.0187 H   0  0
   -1.8270   -7.0705   -1.1290 H   0  0
   -2.6337   -4.0823    2.4747 H   0  0
   -3.4869   -3.1270    1.2720 H   0  0
   -1.2574   -2.0731    1.5849 H   0  0
    1.1301   -6.7217   -0.3867 H   0  0
    1.3591   -6.0205    1.2178 H   0  0
    3.2868   -5.4355   -0.1927 H   0  0
    2.2067   -4.6066   -1.3476 H   0  0
    0.2259   -1.3379   -0.9268 H   0  0
    1.3621   -2.6234   -1.4087 H   0  0
    3.6729   -2.7081   -1.1186 H   0  0
    4.6283   -3.3214    0.2571 H   0  0
    3.3654   -1.5219    1.5043 H   0  0
    4.4462   -0.7575    0.3174 H   0  0
   -0.5286   -5.7827   -2.0332 H   0  0
    0.2823   -4.2154   -1.9427 H   0  0
   -1.4587   -4.3055   -1.6650 H   0  0
    3.4558    0.4121   -1.7631 H   0  0
    1.7591    0.1046   -2.2630 H   0  0
    2.9874   -1.1934   -2.4155 H   0  0
   -4.7877   -9.9290   -0.7310 H   0  0
   -5.3953   -8.7754   -1.9627 H   0  0
   -6.5489   -9.7313   -0.9748 H   0  0
   -5.1522   -9.5514    1.6431 H   0  0
   -6.8973   -9.3715    1.2883 H   0  0
   -6.0604   -8.1571    2.2376 H   0  0
   -0.9229   -5.4460    2.8257 H   0  0
   -0.1385   -6.9282    2.2299 H   0  0
   -1.8172   -6.9628    2.6905 H   0  0
   -4.3362   -5.1877    3.0576 H   0  0
   -3.5886   -6.7771    2.9196 H   0  0
   -5.2969   -6.6130    2.7747 H   0  0
    2.7095   -3.0219    2.7082 H   0  0
    3.5213   -4.5463    2.2317 H   0  0
    1.7513   -4.5083    2.5003 H   0  0
    2.7626    1.1070    0.5191 H   0  0
    1.6283    0.0920    1.4687 H   0  0
    1.0618    0.9150   -0.0229 H   0  0
  -11.1528   -7.1307   -1.3960 H   0  0
  -10.7506   -7.9501    0.1634 H   0  0
  -10.3316   -8.7497   -1.3491 H   0  0
  1  2  1  0
  2  3  1  0
  3  4  1  0
  4  5  1  0
  5  6  1  0
  1  6  1  0
  8  9  1  0
  9 10  1  0
  7 10  1  0
  5  8  1  0
  7  6  1  0
 11 12  1  0
 12 13  2  0
 13 14  1  0
  7 11  1  0
 10 14  1  0
 16 17  1  0
 17 18  1  0
 15 18  1  0
 15 13  1  0
 14 16  1  0
 19 20  1  0
 21 22  1  0
 19 22  1  0
 20 15  1  0
 18 21  1  0
 14 23  1  0
 19 24  1  0
  4 25  1  0
  4 26  1  0
 10 27  1  0
  6 28  1  0
 18 29  1  0
 19 30  1  0
  3 31  1  0
 31 32  1  0
 32 33  1  0
 34 32  2  0
  7 35  1  0
  5 36  1  0
 15 37  1  0
  1 38  1  0
  1 39  1  0
  2 40  1  0
  2 41  1  0
  3 42  1  0
  8 43  1  0
  8 44  1  0
  9 45  1  0
  9 46  1  0
 11 47  1  0
 11 48  1  0
 12 49  1  0
 16 50  1  0
 16 51  1  0
 17 52  1  0
 17 53  1  0
 20 54  1  0
 20 55  1  0
 21 56  1  0
 21 57  1  0
 22 58  1  0
 22 59  1  0
 23 60  1  0
 23 61  1  0
 23 62  1  0
 24 63  1  0
 24 64  1  0
 24 65  1  0
 25 66  1  0
 25 67  1  0
 25 68  1  0
 26 69  1  0
 26 70  1  0
 26 71  1  0
 27 72  1  0
 27 73  1  0
 27 74  1  0
 28 75  1  0
 28 76  1  0
 28 77  1  0
 29 78  1  0
 29 79  1  0
 29 80  1  0
 30 81  1  0
 30 82  1  0
 30 83  1  0
 33 84  1  0
 33 85  1  0
 33 86  1  0
M  END
> <Name>
RB1999_4RRR

> <Clean Energy>
133.509

$$$$
RB1999_4RSS
  SciTegic12132405553D

 86 90  0  0  0  0            999 V2000
   -5.3228   -4.9650    1.1835 C   0  0
   -6.6681   -5.7685    1.3720 C   0  0
   -6.7388   -6.8955    0.2457 C   0  0  1  0  0  0
   -5.5783   -7.9328    0.3880 C   0  0
   -4.1838   -7.0868    0.2723 C   0  0  1  0  0  0
   -4.0511   -5.8709    1.3363 C   0  0  1  0  0  0
   -2.6629   -4.9989    0.9569 C   0  0  1  0  0  0
   -2.8821   -8.0392    0.3851 C   0  0
   -1.6182   -7.2315   -0.0454 C   0  0
   -1.2861   -5.9554    0.8127 C   0  0  1  0  0  0
   -2.7504   -4.1878   -0.2680 C   0  0
   -1.4518   -3.2466   -0.1190 C   0  0
   -0.1850   -3.7008    0.1045 C   0  0
   -0.0018   -5.1570    0.0001 C   0  0  1  0  0  0
    1.0317   -2.7409   -0.0463 C   0  0  2  0  0  0
    1.4228   -5.7185    0.4233 C   0  0
    2.5973   -4.7954   -0.0527 C   0  0
    2.3629   -3.3366    0.5731 C   0  0  1  0  0  0
    1.9905   -0.3392    0.1008 C   0  0
    0.7810   -1.2705    0.4774 C   0  0
    3.5466   -2.3956    0.1701 C   0  0
    3.3034   -0.9264    0.6996 C   0  0
   -0.0063   -5.2971   -1.6340 C   0  0
    2.1100   -0.1817   -1.4520 C   0  0
   -5.6636   -8.9314   -0.7808 C   0  0
   -5.7832   -8.8287    1.6634 C   0  0
   -0.8187   -6.3376    2.2758 C   0  0
   -4.0503   -6.2917    2.8837 C   0  0
    2.3058   -3.4164    2.1814 C   0  0
    1.7505    1.0556    0.6714 C   0  0
   -7.9756   -7.6409    0.2941 O   0  0
   -9.1131   -6.8751   -0.0167 C   0  0
  -10.4601   -7.5264    0.0142 C   0  0
   -9.0205   -5.6889   -0.3544 O   0  0
   -2.5311   -4.1936    1.6920 H   0  0
   -4.2116   -6.6393   -0.7294 H   0  0
    1.1869   -2.6866   -1.1263 H   0  0
   -5.3635   -4.5652    0.1656 H   0  0
   -5.2598   -4.1354    1.9000 H   0  0
   -6.7348   -6.2169    2.3683 H   0  0
   -7.5015   -5.0691    1.2410 H   0  0
   -6.6460   -6.3991   -0.7296 H   0  0
   -2.9709   -8.8608   -0.3313 H   0  0
   -2.7880   -8.4517    1.3979 H   0  0
   -0.7330   -7.8809   -0.0721 H   0  0
   -1.8727   -6.9235   -1.0579 H   0  0
   -3.6211   -3.5278   -0.2626 H   0  0
   -2.7665   -4.8276   -1.1575 H   0  0
   -1.6027   -2.2116   -0.2396 H   0  0
    1.5284   -6.7576    0.0845 H   0  0
    1.5122   -5.7095    1.4873 H   0  0
    3.5435   -5.2076    0.3208 H   0  0
    2.6391   -4.7243   -1.1452 H   0  0
    0.6547   -1.3026    1.5651 H   0  0
   -0.1212   -0.8463    0.0218 H   0  0
    3.6250   -2.3744   -0.9219 H   0  0
    4.4795   -2.7946    0.5889 H   0  0
    3.2180   -0.9452    1.7884 H   0  0
    4.1455   -0.2795    0.4206 H   0  0
    0.1284   -6.3497   -1.9119 H   0  0
    0.8115   -4.7184   -2.0707 H   0  0
   -0.9381   -4.9409   -2.0647 H   0  0
    2.9485    0.4903   -1.6790 H   0  0
    1.1784    0.2530   -1.8386 H   0  0
    2.2829   -1.1463   -1.9398 H   0  0
   -4.8566   -9.6697   -0.7075 H   0  0
   -5.5777   -8.3848   -1.7298 H   0  0
   -6.6313   -9.4501   -0.7420 H   0  0
   -4.9766   -9.5711    1.7210 H   0  0
   -6.7459   -9.3492    1.5722 H   0  0
   -5.7994   -8.2535    2.5631 H   0  0
   -0.5819   -5.4180    2.8298 H   0  0
    0.0667   -6.9752    2.2350 H   0  0
   -1.5459   -6.8768    2.7919 H   0  0
   -3.9520   -5.3815    3.4892 H   0  0
   -3.2585   -6.9556    3.1120 H   0  0
   -4.9580   -6.7739    3.1636 H   0  0
    2.1580   -2.4274    2.6203 H   0  0
    3.2533   -3.8314    2.5490 H   0  0
    1.4809   -4.0540    2.5113 H   0  0
    2.5961    1.7064    0.4094 H   0  0
    1.6602    0.9899    1.7645 H   0  0
    0.8235    1.4668    0.2486 H   0  0
  -11.2444   -6.8209   -0.2959 H   0  0
  -10.6487   -7.8969    1.0321 H   0  0
  -10.4423   -8.4104   -0.6396 H   0  0
  1  2  1  0
  2  3  1  0
  3  4  1  0
  4  5  1  0
  5  6  1  0
  1  6  1  0
  8  9  1  0
  9 10  1  0
  7 10  1  0
  5  8  1  0
  7  6  1  0
 11 12  1  0
 12 13  2  0
 13 14  1  0
  7 11  1  0
 10 14  1  0
 16 17  1  0
 17 18  1  0
 15 18  1  0
 15 13  1  0
 14 16  1  0
 19 20  1  0
 21 22  1  0
 19 22  1  0
 20 15  1  0
 18 21  1  0
 14 23  1  0
 19 24  1  0
  4 25  1  0
  4 26  1  0
 10 27  1  0
  6 28  1  0
 18 29  1  0
 19 30  1  0
  3 31  1  0
 31 32  1  0
 32 33  1  0
 34 32  2  0
  7 35  1  0
  5 36  1  0
 15 37  1  0
  1 38  1  0
  1 39  1  0
  2 40  1  0
  2 41  1  0
  3 42  1  0
  8 43  1  0
  8 44  1  0
  9 45  1  0
  9 46  1  0
 11 47  1  0
 11 48  1  0
 12 49  1  0
 16 50  1  0
 16 51  1  0
 17 52  1  0
 17 53  1  0
 20 54  1  0
 20 55  1  0
 21 56  1  0
 21 57  1  0
 22 58  1  0
 22 59  1  0
 23 60  1  0
 23 61  1  0
 23 62  1  0
 24 63  1  0
 24 64  1  0
 24 65  1  0
 25 66  1  0
 25 67  1  0
 25 68  1  0
 26 69  1  0
 26 70  1  0
 26 71  1  0
 27 72  1  0
 27 73  1  0
 27 74  1  0
 28 75  1  0
 28 76  1  0
 28 77  1  0
 29 78  1  0
 29 79  1  0
 29 80  1  0
 30 81  1  0
 30 82  1  0
 30 83  1  0
 33 84  1  0
 33 85  1  0
 33 86  1  0
M  END
> <Name>
RB1999_4RSS

> <Clean Energy>
141.292

$$$$
RB1999_4RSR
  SciTegic12132405553D

 86 90  0  0  0  0            999 V2000
   -5.4189   -5.2219    1.4906 C   0  0
   -6.7643   -6.0452    1.5399 C   0  0
   -6.8350   -6.9653    0.2392 C   0  0  1  0  0  0
   -5.6750   -8.0119    0.2053 C   0  0
   -4.2802   -7.1585    0.2354 C   0  0  1  0  0  0
   -4.1482   -6.1403    1.4880 C   0  0  1  0  0  0
   -2.7640   -5.2145    1.2660 C   0  0  1  0  0  0
   -2.9795   -8.1176    0.1891 C   0  0
   -1.7170   -7.2508   -0.0983 C   0  0
   -1.3806   -6.1346    0.9613 C   0  0  1  0  0  0
   -2.8440   -4.1927    0.2012 C   0  0
   -1.5407   -3.3076    0.5666 C   0  0
   -0.2823   -3.7985    0.6956 C   0  0
   -0.0948   -5.2141    0.2906 C   0  0  1  0  0  0
    0.8864   -2.7965    0.8951 C   0  0  1  0  0  0
    1.3320   -5.8644    0.5740 C   0  0
    2.5046   -4.8893    0.2231 C   0  0
    2.3399   -3.5710    1.1265 C   0  0  1  0  0  0
    2.1811   -0.8045    0.1505 C   0  0
    1.1286   -1.9752   -0.2867 C   0  0
    3.6560   -2.6650    0.7076 C   0  0
    3.3454   -1.3266    1.1562 C   0  0
   -0.1320   -5.0743   -1.3495 C   0  0
    2.6965   -0.2830   -1.2064 C   0  0
   -5.7591   -8.7990   -1.1154 C   0  0
   -5.8820   -9.1104    1.3108 C   0  0
   -0.9076   -6.7502    2.3403 C   0  0
   -4.1446   -6.8183    2.9400 C   0  0
    2.3389   -3.9210    2.6745 C   0  0
    1.5525    0.3742    0.9186 C   0  0
   -8.0720   -7.7076    0.1602 O   0  0
   -9.2090   -6.8997   -0.0175 C   0  0
  -10.5563   -7.5461   -0.0979 C   0  0
   -9.1156   -5.6736   -0.1499 O   0  0
   -2.6364   -4.5485    2.1299 H   0  0
   -4.3069   -6.5484   -0.6766 H   0  0
    0.6349   -2.0387    1.6385 H   0  0
   -5.4585   -4.6554    0.5549 H   0  0
   -5.3560   -4.5258    2.3373 H   0  0
   -6.8313   -6.6556    2.4461 H   0  0
   -7.5975   -5.3333    1.5289 H   0  0
   -6.7414   -6.3112   -0.6381 H   0  0
   -3.0676   -8.8071   -0.6552 H   0  0
   -2.8866   -8.6944    1.1183 H   0  0
   -0.8325   -7.8873   -0.2351 H   0  0
   -1.9746   -6.7798   -1.0441 H   0  0
   -3.7150   -3.5432    0.3190 H   0  0
   -2.8471   -4.6622   -0.7877 H   0  0
   -1.6805   -2.2686    0.7190 H   0  0
    1.4068   -6.8244    0.0462 H   0  0
    1.4488   -6.0512    1.6233 H   0  0
    3.4620   -5.3714    0.4586 H   0  0
    2.4906   -4.6199   -0.8373 H   0  0
    0.2524   -1.4791   -0.7230 H   0  0
    1.5494   -2.6669   -1.0202 H   0  0
    3.7749   -2.5838   -0.3761 H   0  0
    4.5530   -3.1344    1.1319 H   0  0
    2.9742   -1.4523    2.1684 H   0  0
    4.1612   -0.5919    1.1652 H   0  0
   -0.0115   -6.0642   -1.8059 H   0  0
    0.6802   -4.4375   -1.6970 H   0  0
   -1.0651   -4.6440   -1.6954 H   0  0
    3.4174    0.5278   -1.0338 H   0  0
    1.8490    0.0963   -1.7934 H   0  0
    3.1851   -1.0994   -1.7554 H   0  0
   -4.9522   -9.5392   -1.1668 H   0  0
   -5.6721   -8.1001   -1.9585 H   0  0
   -6.7269   -9.3165   -1.1658 H   0  0
   -5.0757   -9.8522    1.2433 H   0  0
   -6.8446   -9.6075    1.1317 H   0  0
   -5.8995   -8.6953    2.2948 H   0  0
   -0.6696   -5.9332    3.0360 H   0  0
   -0.0219   -7.3708    2.1926 H   0  0
   -1.6337   -7.3675    2.7644 H   0  0
   -4.0468   -6.0246    3.6918 H   0  0
   -3.3504   -7.5100    3.0502 H   0  0
   -5.0508   -7.3428    3.1347 H   0  0
    2.2761   -2.9952    3.2592 H   0  0
    3.2688   -4.4482    2.9250 H   0  0
    1.4810   -4.5525    2.9310 H   0  0
    2.3238    1.1314    1.1146 H   0  0
    1.1409    0.0152    1.8720 H   0  0
    0.7487    0.8147    0.3131 H   0  0
  -11.3267   -6.8127   -0.3763 H   0  0
  -10.7884   -7.9889    0.8815 H   0  0
  -10.5143   -8.3787   -0.8150 H   0  0
  1  2  1  0
  2  3  1  0
  3  4  1  0
  4  5  1  0
  5  6  1  0
  1  6  1  0
  8  9  1  0
  9 10  1  0
  7 10  1  0
  5  8  1  0
  7  6  1  0
 11 12  1  0
 12 13  2  0
 13 14  1  0
  7 11  1  0
 10 14  1  0
 16 17  1  0
 17 18  1  0
 15 18  1  0
 15 13  1  0
 14 16  1  0
 19 20  1  0
 21 22  1  0
 19 22  1  0
 20 15  1  0
 18 21  1  0
 14 23  1  0
 19 24  1  0
  4 25  1  0
  4 26  1  0
 10 27  1  0
  6 28  1  0
 18 29  1  0
 19 30  1  0
  3 31  1  0
 31 32  1  0
 32 33  1  0
 34 32  2  0
  7 35  1  0
  5 36  1  0
 15 37  1  0
  1 38  1  0
  1 39  1  0
  2 40  1  0
  2 41  1  0
  3 42  1  0
  8 43  1  0
  8 44  1  0
  9 45  1  0
  9 46  1  0
 11 47  1  0
 11 48  1  0
 12 49  1  0
 16 50  1  0
 16 51  1  0
 17 52  1  0
 17 53  1  0
 20 54  1  0
 20 55  1  0
 21 56  1  0
 21 57  1  0
 22 58  1  0
 22 59  1  0
 23 60  1  0
 23 61  1  0
 23 62  1  0
 24 63  1  0
 24 64  1  0
 24 65  1  0
 25 66  1  0
 25 67  1  0
 25 68  1  0
 26 69  1  0
 26 70  1  0
 26 71  1  0
 27 72  1  0
 27 73  1  0
 27 74  1  0
 28 75  1  0
 28 76  1  0
 28 77  1  0
 29 78  1  0
 29 79  1  0
 29 80  1  0
 30 81  1  0
 30 82  1  0
 30 83  1  0
 33 84  1  0
 33 85  1  0
 33 86  1  0
M  END
> <Name>
RB1999_4RSR

> <Clean Energy>
201.004

$$$$
RB1999_4RRS
  SciTegic12132405553D

 86 90  0  0  0  0            999 V2000
   -5.3436   -4.9038    0.2570 C   0  0
   -6.7086   -5.6602    0.5045 C   0  0
   -6.6503   -7.0565   -0.2578 C   0  0  1  0  0  0
   -5.5153   -7.9785    0.2877 C   0  0
   -4.1287   -7.1431    0.1021 C   0  0  1  0  0  0
   -4.1263   -5.6874    0.8198 C   0  0  1  0  0  0
   -2.7359   -4.9706    0.3245 C   0  0  2  0  0  0
   -2.8337   -7.9698    0.5500 C   0  0
   -1.5680   -7.1990    0.0330 C   0  0
   -1.3963   -5.7610    0.6182 C   0  0  1  0  0  0
   -2.5722   -3.5323    0.9622 C   0  0
   -1.2720   -2.8085    0.6226 C   0  0
   -0.1606   -3.4359    0.1671 C   0  0
   -0.1807   -4.9448   -0.1781 C   0  0  1  0  0  0
    1.1168   -2.6144   -0.2658 C   0  0  2  0  0  0
    1.2282   -5.6253    0.0980 C   0  0
    2.4222   -4.8130   -0.4824 C   0  0
    2.4435   -3.3680    0.1466 C   0  0  1  0  0  0
    2.3912   -0.3539   -0.3289 C   0  0
    1.1550   -1.1181    0.2529 C   0  0
    3.6620   -2.5877   -0.4457 C   0  0
    3.6928   -1.1042    0.0801 C   0  0
   -0.4004   -4.9492   -1.7653 C   0  0
    2.2837   -0.2196   -1.8842 C   0  0
   -5.4666   -9.2529   -0.5749 C   0  0
   -5.8536   -8.5098    1.7247 C   0  0
   -1.0045   -5.8929    2.1717 C   0  0
   -4.2961   -5.6750    2.4273 C   0  0
    2.6040   -3.4603    1.7374 C   0  0
    2.4229    1.0621    0.2392 C   0  0
   -7.8857   -7.7978   -0.1460 O   0  0
   -8.9783   -7.1838   -0.7839 C   0  0
  -10.3200   -7.8441   -0.7263 C   0  0
   -8.8459   -6.1344   -1.4248 O   0  0
   -2.8185   -4.9178   -0.7572 H   0  0
   -4.0516   -6.9614   -0.9785 H   0  0
    1.1041   -2.6028   -1.3579 H   0  0
   -5.2263   -4.8140   -0.8314 H   0  0
   -5.3716   -3.9030    0.7049 H   0  0
   -6.8955   -5.8117    1.5727 H   0  0
   -7.5171   -5.0513    0.0846 H   0  0
   -6.4428   -6.8444   -1.3152 H   0  0
   -2.8291   -8.9413    0.0473 H   0  0
   -2.8202   -8.1238    1.6369 H   0  0
   -0.6559   -7.7764    0.2281 H   0  0
   -1.7253   -7.1279   -1.0444 H   0  0
   -2.5521   -3.6317    2.0501 H   0  0
   -3.4250   -2.8877    0.7181 H   0  0
   -1.2614   -1.7708    0.7751 H   0  0
    1.2230   -6.6477   -0.2990 H   0  0
    1.3995   -5.6760    1.1613 H   0  0
    3.3585   -5.3281   -0.2316 H   0  0
    2.3366   -4.7305   -1.5717 H   0  0
    1.2104   -1.1270    1.3470 H   0  0
    0.2479   -0.5845   -0.0583 H   0  0
    3.5766   -2.5773   -1.5371 H   0  0
    4.5885   -3.1045   -0.1639 H   0  0
    3.7706   -1.1105    1.1709 H   0  0
    4.5593   -0.5740   -0.3363 H   0  0
   -0.4075   -5.9789   -2.1379 H   0  0
    0.4015   -4.4039   -2.2692 H   0  0
   -1.3515   -4.4685   -2.0139 H   0  0
    3.1546    0.3372   -2.2555 H   0  0
    1.3658    0.3302   -2.1317 H   0  0
    2.2534   -1.2010   -2.3687 H   0  0
   -4.6700   -9.9183   -0.2213 H   0  0
   -5.2772   -8.9744   -1.6205 H   0  0
   -6.4308   -9.7745   -0.5026 H   0  0
   -5.0525   -9.1799    2.0632 H   0  0
   -6.7965   -9.0707    1.6756 H   0  0
   -5.9739   -7.7172    2.4293 H   0  0
   -0.8706   -4.9015    2.6189 H   0  0
   -0.0718   -6.4524    2.2714 H   0  0
   -1.7520   -6.4277    2.7146 H   0  0
   -4.2777   -4.6412    2.7871 H   0  0
   -3.5222   -6.2280    2.9060 H   0  0
   -5.2292   -6.0995    2.7242 H   0  0
    2.6396   -2.4648    2.1873 H   0  0
    3.5375   -3.9897    1.9685 H   0  0
    1.7627   -4.0027    2.1807 H   0  0
    3.2932    1.5971   -0.1654 H   0  0
    2.4969    1.0120    1.3344 H   0  0
    1.5013    1.5886   -0.0447 H   0  0
  -11.0648   -7.2702   -1.2964 H   0  0
  -10.6215   -7.9391    0.3268 H   0  0
  -10.2282   -8.8681   -1.1164 H   0  0
  1  2  1  0
  2  3  1  0
  3  4  1  0
  4  5  1  0
  5  6  1  0
  1  6  1  0
  8  9  1  0
  9 10  1  0
  7 10  1  0
  5  8  1  0
  7  6  1  0
 11 12  1  0
 12 13  2  0
 13 14  1  0
  7 11  1  0
 10 14  1  0
 16 17  1  0
 17 18  1  0
 15 18  1  0
 15 13  1  0
 14 16  1  0
 19 20  1  0
 21 22  1  0
 19 22  1  0
 20 15  1  0
 18 21  1  0
 14 23  1  0
 19 24  1  0
  4 25  1  0
  4 26  1  0
 10 27  1  0
  6 28  1  0
 18 29  1  0
 19 30  1  0
  3 31  1  0
 31 32  1  0
 32 33  1  0
 34 32  2  0
  7 35  1  0
  5 36  1  0
 15 37  1  0
  1 38  1  0
  1 39  1  0
  2 40  1  0
  2 41  1  0
  3 42  1  0
  8 43  1  0
  8 44  1  0
  9 45  1  0
  9 46  1  0
 11 47  1  0
 11 48  1  0
 12 49  1  0
 16 50  1  0
 16 51  1  0
 17 52  1  0
 17 53  1  0
 20 54  1  0
 20 55  1  0
 21 56  1  0
 21 57  1  0
 22 58  1  0
 22 59  1  0
 23 60  1  0
 23 61  1  0
 23 62  1  0
 24 63  1  0
 24 64  1  0
 24 65  1  0
 25 66  1  0
 25 67  1  0
 25 68  1  0
 26 69  1  0
 26 70  1  0
 26 71  1  0
 27 72  1  0
 27 73  1  0
 27 74  1  0
 28 75  1  0
 28 76  1  0
 28 77  1  0
 29 78  1  0
 29 79  1  0
 29 80  1  0
 30 81  1  0
 30 82  1  0
 30 83  1  0
 33 84  1  0
 33 85  1  0
 33 86  1  0
M  END
> <Name>
RB1999_4RRS

> <Clean Energy>
70.6828

$$$$
RB1999_6SRS
  SciTegic12132405553D

 78 81  0  0  0  0            999 V2000
   -7.8102   -5.9571   -0.5323 C   0  0
   -9.0369   -6.8968   -0.5229 C   0  0
   -8.5022   -8.2362   -1.1255 C   0  0  1  0  0  0
   -7.4297   -8.8663   -0.1960 C   0  0
   -6.3331   -7.9018    0.1818 C   0  0
   -6.6451   -6.4863    0.3329 C   0  0  1  0  0  0
   -5.3365   -5.5910    0.0025 C   0  0  2  0  0  0
   -5.1550   -8.3479    0.6863 C   0  0
   -4.0133   -7.3656    1.2387 C   0  0
   -3.9768   -6.4298    0.1039 C   0  0  2  0  0  0
   -4.1679   -3.3964    0.5886 C   0  0
   -5.3962   -4.2734    0.9148 C   0  0
   -2.8355   -5.3598   -0.0277 C   0  0  1  0  0  0
   -2.8312   -4.1688    0.8705 C   0  0  1  0  0  0
   -1.5166   -3.4904    0.1681 C   0  0  2  0  0  0
   -1.3787   -5.9448    0.0564 C   0  0
   -0.5204   -4.6558    0.3592 C   0  0
    0.3149   -1.8365   -0.1053 C   0  0
   -0.9088   -2.1239    0.6907 C   0  0  1  0  0  0
    1.4758   -1.6560    0.5138 C   0  0
    2.7087   -1.3812   -0.2822 C   0  0  2  0  0  0
    3.6961   -3.5698    0.6281 C   0  0
    3.9467   -2.0443    0.5079 C   0  0
    3.7801    0.8408   -1.3591 C   0  0
    2.6804    0.2045   -0.4711 C   0  0
    5.3243   -1.9299   -0.1878 C   0  0
   -1.8493   -0.9211    0.4847 C   0  0
   -7.1215   -6.4742    1.8885 C   0  0
   -2.6854   -4.4200    2.4500 C   0  0
   -9.5607   -9.1773   -1.2815 O   0  0
   -3.8890   -7.1450   -0.7259 H   0  0
   -5.2971   -5.3061   -1.0568 H   0  0
   -2.9431   -4.8772   -1.0070 H   0  0
   -7.4742   -5.9440   -1.5783 H   0  0
   -8.0655   -4.9355   -0.2212 H   0  0
   -9.4529   -7.0482    0.4810 H   0  0
   -9.8092   -6.4795   -1.1829 H   0  0
   -8.0613   -8.0105   -2.1068 H   0  0
   -7.9382   -9.1185    0.7447 H   0  0
   -7.0110   -9.7938   -0.6084 H   0  0
   -4.9780   -9.3917    0.7068 H   0  0
   -4.2517   -6.8412    2.1702 H   0  0
   -3.0772   -7.9299    1.3356 H   0  0
   -4.2189   -3.1740   -0.4858 H   0  0
   -4.1881   -2.4626    1.1570 H   0  0
   -5.3671   -4.5330    1.9741 H   0  0
   -6.3187   -3.7170    0.7025 H   0  0
   -1.7448   -3.3911   -0.9005 H   0  0
   -1.1535   -6.5157   -0.8539 H   0  0
   -1.2394   -6.5672    0.9505 H   0  0
   -0.3246   -4.6700    1.4287 H   0  0
    0.4470   -4.5964   -0.1595 H   0  0
    0.2608   -1.7818   -1.1623 H   0  0
   -0.6495   -2.2114    1.7545 H   0  0
    1.5277   -1.7180    1.5711 H   0  0
    2.6071   -1.8244   -1.2822 H   0  0
    4.5260   -4.0268    1.1845 H   0  0
    3.6465   -4.0075   -0.3787 H   0  0
    2.7568   -3.7702    1.1595 H   0  0
    4.0069   -1.6011    1.5114 H   0  0
    3.6056    1.9239   -1.4236 H   0  0
    3.7346    0.4030   -2.3662 H   0  0
    4.7628    0.6710   -0.9298 H   0  0
    2.7128    0.6723    0.5224 H   0  0
    1.7233    0.4555   -0.9492 H   0  0
    5.6132   -0.8913   -0.2976 H   0  0
    5.2726   -2.4066   -1.1766 H   0  0
    6.0774   -2.4431    0.4261 H   0  0
   -2.7697   -1.0622    1.0519 H   0  0
   -2.0839   -0.8225   -0.5841 H   0  0
   -1.3478   -0.0088    0.8360 H   0  0
   -7.4076   -5.4590    2.1868 H   0  0
   -6.3241   -6.8225    2.5456 H   0  0
   -7.9897   -7.1291    2.0200 H   0  0
   -2.6292   -3.4476    2.9568 H   0  0
   -1.7885   -4.9960    2.6884 H   0  0
   -3.5526   -4.9677    2.8279 H   0  0
   -9.9565   -9.3719   -0.3961 H   0  0
  1  2  1  0
  2  3  1  0
  3  4  1  0
  4  5  1  0
  5  6  1  0
  1  6  1  0
  8  9  1  0
  9 10  1  0
  7 10  1  0
  5  8  2  0
  7  6  1  0
 11 12  1  0
 13 14  1  0
 11 14  1  0
 12  7  1  0
 10 13  1  0
 16 17  1  0
 15 17  1  0
 15 14  1  0
 18 19  1  0
 18 20  2  0
 22 23  1  0
 21 23  1  0
 21 20  1  0
 24 25  1  0
 21 25  1  0
 23 26  1  0
 15 19  1  0
 19 27  1  0
  6 28  1  0
 14 29  1  0
  3 30  1  0
 13 16  1  0
 10 31  1  0
  7 32  1  0
 13 33  1  0
  1 34  1  0
  1 35  1  0
  2 36  1  0
  2 37  1  0
  3 38  1  0
  4 39  1  0
  4 40  1  0
  8 41  1  0
  9 42  1  0
  9 43  1  0
 11 44  1  0
 11 45  1  0
 12 46  1  0
 12 47  1  0
 15 48  1  0
 16 49  1  0
 16 50  1  0
 17 51  1  0
 17 52  1  0
 18 53  1  0
 19 54  1  0
 20 55  1  0
 21 56  1  0
 22 57  1  0
 22 58  1  0
 22 59  1  0
 23 60  1  0
 24 61  1  0
 24 62  1  0
 24 63  1  0
 25 64  1  0
 25 65  1  0
 26 66  1  0
 26 67  1  0
 26 68  1  0
 27 69  1  0
 27 70  1  0
 27 71  1  0
 28 72  1  0
 28 73  1  0
 28 74  1  0
 29 75  1  0
 29 76  1  0
 29 77  1  0
 30 78  1  0
M  END
> <Name>
RB1999_6SRS

> <Clean Energy>
197.302

$$$$
RB1999_6SSS
  SciTegic12132405553D

 78 81  0  0  0  0            999 V2000
   -7.8519   -5.5394   -0.4019 C   0  0
   -9.0879   -6.4550   -0.2177 C   0  0
   -8.7350   -7.8295   -0.8429 C   0  0  1  0  0  0
   -7.5447   -8.4699   -0.0963 C   0  0
   -6.3550   -7.5400   -0.0843 C   0  0
   -6.5765   -6.0939    0.3104 C   0  0  1  0  0  0
   -5.3119   -5.1745   -0.0622 C   0  0  2  0  0  0
   -5.1384   -8.0428   -0.3153 C   0  0
   -3.9033   -7.1793   -0.3196 C   0  0
   -4.0540   -5.8543    0.4689 C   0  0  1  0  0  0
   -4.1831   -2.8995    0.1479 C   0  0
   -5.4658   -3.6968    0.5231 C   0  0
   -2.8304   -4.9640    0.1808 C   0  0  1  0  0  0
   -2.9126   -3.5872    0.7616 C   0  0  1  0  0  0
   -1.5116   -3.1018    0.1383 C   0  0  2  0  0  0
   -1.4595   -5.5072    0.6911 C   0  0
   -0.5676   -4.2099    0.7108 C   0  0
    0.4030   -1.5789   -0.2842 C   0  0
   -0.9174   -1.6573    0.3965 C   0  0  1  0  0  0
    1.4843   -1.2489    0.4125 C   0  0
    2.8137   -1.1827   -0.2639 C   0  0  2  0  0  0
    3.6140   -3.0680    1.2849 C   0  0
    3.9242   -1.6222    0.8179 C   0  0
    4.0772    0.6956   -1.7202 C   0  0
    2.8575    0.3034   -0.8477 C   0  0
    5.3798   -1.6856    0.2962 C   0  0
   -1.7802   -0.5304   -0.2021 C   0  0
   -6.8253   -6.1270    1.8866 C   0  0
   -2.9948   -3.4861    2.3651 C   0  0
   -9.8557   -8.7050   -0.7543 O   0  0
   -4.1459   -6.0118    1.5461 H   0  0
   -5.1915   -5.1087   -1.1517 H   0  0
   -2.7581   -4.8003   -0.9018 H   0  0
   -7.6518   -5.5019   -1.4815 H   0  0
   -8.0678   -4.5283   -0.0372 H   0  0
   -9.3474   -6.5720    0.8415 H   0  0
   -9.9406   -6.0196   -0.7556 H   0  0
   -8.4683   -7.6763   -1.8980 H   0  0
   -7.8742   -8.6124    0.9414 H   0  0
   -7.2724   -9.4408   -0.5311 H   0  0
   -5.0462   -9.0721   -0.5484 H   0  0
   -3.0260   -7.7563   -0.0009 H   0  0
   -3.7553   -6.8991   -1.3714 H   0  0
   -4.1007   -2.9245   -0.9473 H   0  0
   -4.2490   -1.8618    0.4875 H   0  0
   -5.5745   -3.7226    1.6075 H   0  0
   -6.3464   -3.2107    0.0867 H   0  0
   -1.6083   -3.2559   -0.9438 H   0  0
   -1.0896   -6.3801    0.1367 H   0  0
   -1.5704   -5.7656    1.7517 H   0  0
   -0.4474   -3.9722    1.7714 H   0  0
    0.4308   -4.2882    0.2579 H   0  0
    0.4808   -1.7913   -1.3195 H   0  0
   -0.7915   -1.4901    1.4749 H   0  0
    1.4040   -1.0435    1.4497 H   0  0
    2.8224   -1.8647   -1.1250 H   0  0
    4.3548   -3.3679    2.0389 H   0  0
    3.6753   -3.7464    0.4225 H   0  0
    2.6108   -3.1286    1.7261 H   0  0
    3.8740   -0.9393    1.6770 H   0  0
    3.9452    1.7268   -2.0767 H   0  0
    4.1426    0.0169   -2.5822 H   0  0
    4.9939    0.6416   -1.1409 H   0  0
    2.7817    1.0078   -0.0079 H   0  0
    1.9747    0.4236   -1.4909 H   0  0
    5.7116   -0.7082   -0.0335 H   0  0
    5.4355   -2.3972   -0.5393 H   0  0
    6.0355   -2.0255    1.1098 H   0  0
   -2.7670   -0.5256    0.2631 H   0  0
   -1.8817   -0.6870   -1.2849 H   0  0
   -1.2904    0.4352   -0.0153 H   0  0
   -7.0230   -5.1153    2.2568 H   0  0
   -5.9424   -6.5315    2.3946 H   0  0
   -7.6848   -6.7600    2.1276 H   0  0
   -2.9847   -2.4256    2.6497 H   0  0
   -2.1547   -3.9866    2.8515 H   0  0
   -3.9186   -3.9450    2.7303 H   0  0
  -10.0919   -8.8362    0.1973 H   0  0
  1  2  1  0
  2  3  1  0
  3  4  1  0
  4  5  1  0
  5  6  1  0
  1  6  1  0
  8  9  1  0
  9 10  1  0
  7 10  1  0
  5  8  2  0
  7  6  1  0
 11 12  1  0
 13 14  1  0
 11 14  1  0
 12  7  1  0
 10 13  1  0
 16 17  1  0
 15 17  1  0
 15 14  1  0
 18 19  1  0
 18 20  2  0
 22 23  1  0
 21 23  1  0
 21 20  1  0
 24 25  1  0
 21 25  1  0
 23 26  1  0
 15 19  1  0
 19 27  1  0
  6 28  1  0
 14 29  1  0
  3 30  1  0
 13 16  1  0
 10 31  1  0
  7 32  1  0
 13 33  1  0
  1 34  1  0
  1 35  1  0
  2 36  1  0
  2 37  1  0
  3 38  1  0
  4 39  1  0
  4 40  1  0
  8 41  1  0
  9 42  1  0
  9 43  1  0
 11 44  1  0
 11 45  1  0
 12 46  1  0
 12 47  1  0
 15 48  1  0
 16 49  1  0
 16 50  1  0
 17 51  1  0
 17 52  1  0
 18 53  1  0
 19 54  1  0
 20 55  1  0
 21 56  1  0
 22 57  1  0
 22 58  1  0
 22 59  1  0
 23 60  1  0
 24 61  1  0
 24 62  1  0
 24 63  1  0
 25 64  1  0
 25 65  1  0
 26 66  1  0
 26 67  1  0
 26 68  1  0
 27 69  1  0
 27 70  1  0
 27 71  1  0
 28 72  1  0
 28 73  1  0
 28 74  1  0
 29 75  1  0
 29 76  1  0
 29 77  1  0
 30 78  1  0
M  END
> <Name>
RB1999_6SSS

> <Clean Energy>
132.949

$$$$
RB1999_6SRR
  SciTegic12132405553D

 78 81  0  0  0  0            999 V2000
   -7.5436   -6.6771   -0.6227 C   0  0
   -8.6604   -7.7356   -0.4820 C   0  0
   -7.9074   -9.1028   -0.5637 C   0  0  1  0  0  0
   -6.9503   -9.2745    0.6471 C   0  0
   -6.0300   -8.0955    0.8465 C   0  0
   -6.4944   -6.7609    0.5078 C   0  0  1  0  0  0
   -5.2382   -5.8292    0.0821 C   0  0  2  0  0  0
   -4.9180   -8.2005    1.6166 C   0  0
   -3.9803   -6.9479    1.9827 C   0  0
   -3.8106   -6.4159    0.6290 C   0  0  2  0  0  0
   -4.4330   -3.3483    0.1419 C   0  0
   -5.5873   -4.3086    0.5517 C   0  0
   -2.7120   -5.3077    0.3442 C   0  0  2  0  0  0
   -3.0545   -3.8500    0.8202 C   0  0  1  0  0  0
   -1.7105   -3.2321    0.3212 C   0  0  1  0  0  0
   -2.4272   -5.0638   -1.1820 C   0  0
   -1.6580   -3.6971   -1.1918 C   0  0
    0.0540   -1.5033    0.0185 C   0  0
   -1.3376   -1.6953    0.5273 C   0  0  1  0  0  0
    1.0796   -2.0575    0.6576 C   0  0
    2.4661   -1.8846    0.1338 C   0  0  2  0  0  0
    2.5933   -4.4372   -0.1297 C   0  0
    3.2893   -3.2138    0.5247 C   0  0
    4.3106    0.0663    0.3153 C   0  0
    2.9281   -0.4846    0.7486 C   0  0
    4.7478   -3.2735    0.0115 C   0  0
   -2.2585   -0.6867   -0.2015 C   0  0
   -7.2248   -6.3637    1.9082 C   0  0
   -3.1618   -3.6577    2.3701 C   0  0
   -8.8301  -10.1886   -0.5564 O   0  0
   -3.5132   -7.3390    0.1118 H   0  0
   -5.0692   -5.8646   -0.9988 H   0  0
   -1.7569   -5.6132    0.7903 H   0  0
   -7.0405   -6.9236   -1.5679 H   0  0
   -7.9420   -5.6556   -0.6804 H   0  0
   -9.2220   -7.6441    0.4562 H   0  0
   -9.3476   -7.6429   -1.3336 H   0  0
   -7.3321   -9.1136   -1.5004 H   0  0
   -7.5826   -9.3106    1.5449 H   0  0
   -6.3815  -10.2126    0.6016 H   0  0
   -4.6497   -9.1564    1.9845 H   0  0
   -4.4237   -6.2017    2.6480 H   0  0
   -3.0318   -7.3228    2.3882 H   0  0
   -4.3842   -3.3827   -0.9439 H   0  0
   -4.6445   -2.3170    0.4447 H   0  0
   -5.6996   -4.2661    1.6352 H   0  0
   -6.5215   -3.9785    0.0787 H   0  0
   -0.9700   -3.8204    0.8783 H   0  0
   -3.3717   -4.8423   -1.6654 H   0  0
   -1.9645   -5.8964   -1.7273 H   0  0
   -0.6380   -3.6923   -1.6012 H   0  0
   -2.3034   -3.0455   -1.7938 H   0  0
    0.2228   -0.9297   -0.8568 H   0  0
   -1.3532   -1.5171    1.6103 H   0  0
    0.9114   -2.6353    1.5319 H   0  0
    2.4332   -1.7572   -0.9568 H   0  0
    3.1367   -5.3503    0.1497 H   0  0
    2.6120   -4.3210   -1.2222 H   0  0
    1.5524   -4.5232    0.2103 H   0  0
    3.2822   -3.3281    1.6174 H   0  0
    4.4691    1.0462    0.7870 H   0  0
    4.3321    0.1794   -0.7777 H   0  0
    5.1043   -0.6046    0.6299 H   0  0
    2.9052   -0.5627    1.8442 H   0  0
    2.1912    0.2664    0.4319 H   0  0
    5.3365   -2.4687    0.4360 H   0  0
    4.7507   -3.1962   -1.0847 H   0  0
    5.1923   -4.2327    0.3111 H   0  0
   -3.2850   -0.7915    0.1590 H   0  0
   -2.2275   -0.8705   -1.2836 H   0  0
   -1.9067    0.3334    0.0038 H   0  0
   -7.6540   -5.3577    1.8380 H   0  0
   -6.5199   -6.3880    2.7397 H   0  0
   -8.0357   -7.0687    2.1213 H   0  0
   -3.2861   -2.5897    2.5932 H   0  0
   -2.2387   -4.0242    2.8386 H   0  0
   -4.0116   -4.2072    2.7777 H   0  0
   -9.3481  -10.1701    0.2860 H   0  0
  1  2  1  0
  2  3  1  0
  3  4  1  0
  4  5  1  0
  5  6  1  0
  1  6  1  0
  8  9  1  0
  9 10  1  0
  7 10  1  0
  5  8  2  0
  7  6  1  0
 11 12  1  0
 13 14  1  0
 11 14  1  0
 12  7  1  0
 10 13  1  0
 16 17  1  0
 15 17  1  0
 15 14  1  0
 18 19  1  0
 18 20  2  0
 22 23  1  0
 21 23  1  0
 21 20  1  0
 24 25  1  0
 21 25  1  0
 23 26  1  0
 15 19  1  0
 19 27  1  0
  6 28  1  0
 14 29  1  0
  3 30  1  0
 13 16  1  0
 10 31  1  0
  7 32  1  0
 13 33  1  0
  1 34  1  0
  1 35  1  0
  2 36  1  0
  2 37  1  0
  3 38  1  0
  4 39  1  0
  4 40  1  0
  8 41  1  0
  9 42  1  0
  9 43  1  0
 11 44  1  0
 11 45  1  0
 12 46  1  0
 12 47  1  0
 15 48  1  0
 16 49  1  0
 16 50  1  0
 17 51  1  0
 17 52  1  0
 18 53  1  0
 19 54  1  0
 20 55  1  0
 21 56  1  0
 22 57  1  0
 22 58  1  0
 22 59  1  0
 23 60  1  0
 24 61  1  0
 24 62  1  0
 24 63  1  0
 25 64  1  0
 25 65  1  0
 26 66  1  0
 26 67  1  0
 26 68  1  0
 27 69  1  0
 27 70  1  0
 27 71  1  0
 28 72  1  0
 28 73  1  0
 28 74  1  0
 29 75  1  0
 29 76  1  0
 29 77  1  0
 30 78  1  0
M  END
> <Name>
RB1999_6SRR

> <Clean Energy>
201.017

$$$$
RB1999_6SSR
  SciTegic12132405553D

 78 81  0  0  0  0            999 V2000
   -7.6870   -5.7867   -0.8197 C   0  0
   -9.0048   -6.5910   -0.6961 C   0  0
   -8.6207   -8.0932   -0.6914 C   0  0  1  0  0  0
   -7.7413   -8.4191    0.5354 C   0  0
   -6.5205   -7.5301    0.5786 C   0  0
   -6.7052   -6.0431    0.3684 C   0  0  1  0  0  0
   -5.3025   -5.2973    0.0688 C   0  0  2  0  0  0
   -5.3439   -8.0647    0.9176 C   0  0
   -4.0795   -7.2468    0.9842 C   0  0
   -4.3074   -5.7150    1.1294 C   0  0  1  0  0  0
   -4.1420   -3.0396   -0.1581 C   0  0
   -5.4932   -3.7068    0.0996 C   0  0
   -2.9083   -5.0017    0.9716 C   0  0  2  0  0  0
   -3.0680   -3.4672    0.9249 C   0  0  1  0  0  0
   -1.6895   -2.9859    0.2976 C   0  0  2  0  0  0
   -1.9453   -5.2557   -0.1510 C   0  0
   -0.8426   -4.2191    0.4494 C   0  0
    0.1811   -1.3802   -0.0470 C   0  0
   -1.0953   -1.5644    0.6972 C   0  0  1  0  0  0
    1.3374   -1.4169    0.6063 C   0  0
    2.6214   -1.2438   -0.1389 C   0  0  2  0  0  0
    3.3183   -3.5833    0.6598 C   0  0
    3.7477   -2.0938    0.6403 C   0  0
    3.9792    0.8939   -1.0522 C   0  0
    2.7842    0.3431   -0.2331 C   0  0
    5.1512   -2.1022   -0.0116 C   0  0
   -2.0174   -0.3903    0.2995 C   0  0
   -7.3762   -5.5271    1.7256 C   0  0
   -3.3900   -3.0480    2.4002 C   0  0
   -9.7971   -8.8953   -0.6369 O   0  0
   -4.7363   -5.4479    2.0940 H   0  0
   -4.8990   -5.6137   -0.9022 H   0  0
   -2.2713   -5.2911    1.8149 H   0  0
   -7.2015   -6.1291   -1.7438 H   0  0
   -7.8995   -4.7140   -0.8975 H   0  0
   -9.5508   -6.3324    0.2193 H   0  0
   -9.6369   -6.3803   -1.5691 H   0  0
   -8.0646   -8.3150   -1.6130 H   0  0
   -8.3528   -8.1955    1.4196 H   0  0
   -7.4492   -9.4776    0.5521 H   0  0
   -5.2896   -9.1075    1.0961 H   0  0
   -3.4007   -7.6320    1.7563 H   0  0
   -3.6036   -7.4147    0.0118 H   0  0
   -3.8096   -3.3882   -1.1439 H   0  0
   -4.2448   -1.9533   -0.1782 H   0  0
   -5.8640   -3.3874    1.0773 H   0  0
   -6.2032   -3.3977   -0.6763 H   0  0
   -1.8220   -3.0378   -0.7903 H   0  0
   -2.3199   -4.9611   -1.1400 H   0  0
   -1.6001   -6.2976   -0.1621 H   0  0
   -0.5984   -4.4449    1.4959 H   0  0
    0.0742   -4.1532   -0.1527 H   0  0
    0.1667   -1.2228   -1.0948 H   0  0
   -0.9003   -1.5515    1.7781 H   0  0
    1.3481   -1.5796    1.6542 H   0  0
    2.5017   -1.6120   -1.1669 H   0  0
    4.0711   -4.1664    1.2080 H   0  0
    3.2510   -3.9528   -0.3729 H   0  0
    2.3455   -3.7021    1.1538 H   0  0
    3.8264   -1.7200    1.6705 H   0  0
    3.9344    1.9919   -1.0563 H   0  0
    3.9164    0.5220   -2.0846 H   0  0
    4.9207    0.5851   -0.6082 H   0  0
    2.8381    0.7469    0.7872 H   0  0
    1.8795    0.7327   -0.7203 H   0  0
    5.5621   -1.1003   -0.0496 H   0  0
    5.0766   -2.5109   -1.0289 H   0  0
    5.8192   -2.7356    0.5884 H   0  0
   -2.9796   -0.4780    0.8195 H   0  0
   -2.1829   -0.4119   -0.7865 H   0  0
   -1.5377    0.5576    0.5793 H   0  0
   -7.5794   -4.4531    1.6613 H   0  0
   -6.7027   -5.7178    2.5691 H   0  0
   -8.3204   -6.0481    1.9108 H   0  0
   -3.4630   -1.9550    2.4599 H   0  0
   -2.5818   -3.3970    3.0571 H   0  0
   -4.3390   -3.4854    2.7307 H   0  0
  -10.2939   -8.6886    0.1931 H   0  0
  1  2  1  0
  2  3  1  0
  3  4  1  0
  4  5  1  0
  5  6  1  0
  1  6  1  0
  8  9  1  0
  9 10  1  0
  7 10  1  0
  5  8  2  0
  7  6  1  0
 11 12  1  0
 13 14  1  0
 11 14  1  0
 12  7  1  0
 10 13  1  0
 16 17  1  0
 15 17  1  0
 15 14  1  0
 18 19  1  0
 18 20  2  0
 22 23  1  0
 21 23  1  0
 21 20  1  0
 24 25  1  0
 21 25  1  0
 23 26  1  0
 15 19  1  0
 19 27  1  0
  6 28  1  0
 14 29  1  0
  3 30  1  0
 13 16  1  0
 10 31  1  0
  7 32  1  0
 13 33  1  0
  1 34  1  0
  1 35  1  0
  2 36  1  0
  2 37  1  0
  3 38  1  0
  4 39  1  0
  4 40  1  0
  8 41  1  0
  9 42  1  0
  9 43  1  0
 11 44  1  0
 11 45  1  0
 12 46  1  0
 12 47  1  0
 15 48  1  0
 16 49  1  0
 16 50  1  0
 17 51  1  0
 17 52  1  0
 18 53  1  0
 19 54  1  0
 20 55  1  0
 21 56  1  0
 22 57  1  0
 22 58  1  0
 22 59  1  0
 23 60  1  0
 24 61  1  0
 24 62  1  0
 24 63  1  0
 25 64  1  0
 25 65  1  0
 26 66  1  0
 26 67  1  0
 26 68  1  0
 27 69  1  0
 27 70  1  0
 27 71  1  0
 28 72  1  0
 28 73  1  0
 28 74  1  0
 29 75  1  0
 29 76  1  0
 29 77  1  0
 30 78  1  0
M  END
> <Name>
RB1999_6SSR

> <Clean Energy>
138.335

$$$$
RB1999_6RRR
  SciTegic12132405553D

 78 81  0  0  0  0            999 V2000
   -6.8820   -7.3976   -0.5235 C   0  0
   -7.9549   -8.5516   -0.5129 C   0  0
   -7.4318   -9.7389    0.3629 C   0  0  1  0  0  0
   -7.1735   -9.2507    1.8150 C   0  0
   -6.1742   -8.1465    1.6675 C   0  0
   -6.5979   -6.8877    0.9426 C   0  0  1  0  0  0
   -5.4797   -5.7755    1.0283 C   0  0  1  0  0  0
   -4.9125   -8.3846    2.0373 C   0  0
   -3.7912   -7.3999    1.8102 C   0  0
   -4.0400   -6.4665    0.5672 C   0  0  2  0  0  0
   -4.5357   -3.4066    0.6038 C   0  0
   -5.7120   -4.5380    0.2398 C   0  0
   -2.8437   -5.3683    0.2556 C   0  0  2  0  0  0
   -3.0681   -4.0651    1.0396 C   0  0  1  0  0  0
   -1.7851   -3.3432    0.5729 C   0  0  1  0  0  0
   -2.7485   -4.7697   -1.2114 C   0  0
   -1.8653   -3.4822   -1.0152 C   0  0
   -0.0113   -1.6030    0.4841 C   0  0
   -1.3549   -1.8936    1.0674 C   0  0  1  0  0  0
    1.0549   -2.2796    0.8998 C   0  0
    2.3933   -2.0055    0.2990 C   0  0  2  0  0  0
    2.4482   -4.4521   -0.4836 C   0  0
    3.2221   -3.3871    0.3385 C   0  0
    4.2835   -0.1331    0.7025 C   0  0
    2.9342   -0.7590    1.1388 C   0  0
    4.6286   -3.3429   -0.3051 C   0  0
   -2.3202   -0.7560    0.6579 C   0  0
   -7.9220   -6.2599    1.5431 C   0  0
   -3.0005   -4.2065    2.6118 C   0  0
   -8.3963  -10.7874    0.3758 O   0  0
   -4.0713   -7.0819   -0.3395 H   0  0
   -5.3946   -5.4298    2.0572 H   0  0
   -1.8606   -5.8289    0.4201 H   0  0
   -5.9593   -7.8090   -0.9489 H   0  0
   -7.2306   -6.5639   -1.1465 H   0  0
   -8.9013   -8.1869   -0.0999 H   0  0
   -8.1232   -8.9024   -1.5397 H   0  0
   -6.4895  -10.1095   -0.0644 H   0  0
   -8.1276   -8.8807    2.2053 H   0  0
   -6.7794  -10.0730    2.4267 H   0  0
   -4.6866   -9.3129    2.4950 H   0  0
   -3.7169   -6.7919    2.7062 H   0  0
   -2.8491   -7.9514    1.6959 H   0  0
   -4.4906   -2.9147   -0.3745 H   0  0
   -4.7902   -2.6417    1.3487 H   0  0
   -6.6853   -4.0594    0.3962 H   0  0
   -5.6325   -4.8634   -0.8045 H   0  0
   -1.0175   -4.0469    0.9223 H   0  0
   -3.7087   -4.3960   -1.4977 H   0  0
   -2.4391   -5.4603   -2.0064 H   0  0
   -0.8601   -3.4673   -1.4596 H   0  0
   -2.4880   -2.6909   -1.4518 H   0  0
    0.0909   -0.8616   -0.2665 H   0  0
   -1.2691   -1.9510    2.1601 H   0  0
    0.9522   -3.0250    1.6484 H   0  0
    2.2671   -1.6600   -0.7361 H   0  0
    2.9965   -5.4033   -0.4439 H   0  0
    2.3732   -4.1171   -1.5275 H   0  0
    1.4397   -4.6041   -0.0758 H   0  0
    3.3089   -3.7201    1.3819 H   0  0
    4.5015    0.7311    1.3454 H   0  0
    4.2109    0.1985   -0.3428 H   0  0
    5.0888   -0.8545    0.8030 H   0  0
    3.0062   -1.0568    2.1938 H   0  0
    2.1868    0.0413    1.0473 H   0  0
    5.2675   -2.6413    0.2182 H   0  0
    4.5366   -3.0454   -1.3590 H   0  0
    5.0793   -4.3433   -0.2460 H   0  0
   -3.3119   -0.9389    1.0833 H   0  0
   -2.3926   -0.7065   -0.4366 H   0  0
   -1.9334    0.1984    1.0400 H   0  0
   -8.2214   -5.3852    0.9549 H   0  0
   -7.7275   -5.9519    2.5792 H   0  0
   -8.7447   -6.9789    1.5383 H   0  0
   -3.0648   -3.2080    3.0636 H   0  0
   -2.0446   -4.6714    2.8881 H   0  0
   -3.8157   -4.8107    2.9923 H   0  0
   -9.2416  -10.4472    0.7608 H   0  0
  1  2  1  0
  2  3  1  0
  3  4  1  0
  4  5  1  0
  5  6  1  0
  1  6  1  0
  8  9  1  0
  9 10  1  0
  7 10  1  0
  5  8  2  0
  7  6  1  0
 11 12  1  0
 13 14  1  0
 11 14  1  0
 12  7  1  0
 10 13  1  0
 16 17  1  0
 15 17  1  0
 15 14  1  0
 18 19  1  0
 18 20  2  0
 22 23  1  0
 21 23  1  0
 21 20  1  0
 24 25  1  0
 21 25  1  0
 23 26  1  0
 15 19  1  0
 19 27  1  0
  6 28  1  0
 14 29  1  0
  3 30  1  0
 13 16  1  0
 10 31  1  0
  7 32  1  0
 13 33  1  0
  1 34  1  0
  1 35  1  0
  2 36  1  0
  2 37  1  0
  3 38  1  0
  4 39  1  0
  4 40  1  0
  8 41  1  0
  9 42  1  0
  9 43  1  0
 11 44  1  0
 11 45  1  0
 12 46  1  0
 12 47  1  0
 15 48  1  0
 16 49  1  0
 16 50  1  0
 17 51  1  0
 17 52  1  0
 18 53  1  0
 19 54  1  0
 20 55  1  0
 21 56  1  0
 22 57  1  0
 22 58  1  0
 22 59  1  0
 23 60  1  0
 24 61  1  0
 24 62  1  0
 24 63  1  0
 25 64  1  0
 25 65  1  0
 26 66  1  0
 26 67  1  0
 26 68  1  0
 27 69  1  0
 27 70  1  0
 27 71  1  0
 28 72  1  0
 28 73  1  0
 28 74  1  0
 29 75  1  0
 29 76  1  0
 29 77  1  0
 30 78  1  0
M  END
> <Name>
RB1999_6RRR

> <Clean Energy>
227.65

$$$$
RB1999_6RSS
  SciTegic12132405553D

 78 81  0  0  0  0            999 V2000
   -8.1519   -6.5762    0.3535 C   0  0
   -9.2931   -7.6476    0.7334 C   0  0
   -8.6233   -8.9844    1.2657 C   0  0  1  0  0  0
   -7.7029   -8.6624    2.5005 C   0  0
   -6.7953   -7.6823    1.8766 C   0  0
   -7.2627   -6.2867    1.6676 C   0  0  1  0  0  0
   -6.0013   -5.3153    1.5511 C   0  0  1  0  0  0
   -5.7348   -8.1426    1.1588 C   0  0
   -4.8924   -7.2197    0.1893 C   0  0
   -4.6316   -6.0572    1.0170 C   0  0  1  0  0  0
   -4.9738   -3.1026    0.7873 C   0  0
   -6.2557   -4.1203    0.7079 C   0  0
   -3.6473   -4.9926    0.2908 C   0  0  1  0  0  0
   -3.5259   -3.7861    1.1042 C   0  0  1  0  0  0
   -2.1524   -3.1539    0.6127 C   0  0  1  0  0  0
   -2.2779   -5.3110   -0.1845 C   0  0
   -2.0001   -3.7939   -0.7417 C   0  0
   -0.4472   -1.3688    0.3935 C   0  0
   -1.8564   -1.6024    0.8280 C   0  0  1  0  0  0
    0.5586   -1.8575    1.1120 C   0  0
    1.9652   -1.6496    0.6644 C   0  0  2  0  0  0
    2.1829   -4.2019    0.4584 C   0  0
    2.8037   -2.9458    1.1271 C   0  0
    3.7366    0.3600    0.9152 C   0  0
    2.3486   -0.2265    1.2789 C   0  0
    4.2904   -2.9694    0.6985 C   0  0
   -2.7560   -0.6363    0.0191 C   0  0
   -8.2084   -5.5968    2.7308 C   0  0
   -3.2052   -3.9380    2.6595 C   0  0
   -9.6289   -9.9245    1.6320 O   0  0
   -4.1826   -6.5165    1.9084 H   0  0
   -5.7254   -4.9481    2.5352 H   0  0
   -4.0861   -4.6581   -0.6604 H   0  0
   -7.5372   -7.0024   -0.4396 H   0  0
   -8.6068   -5.6443   -0.0068 H   0  0
   -9.9391   -7.2407    1.5145 H   0  0
   -9.9042   -7.8706   -0.1512 H   0  0
   -8.0047   -9.4083    0.4633 H   0  0
   -8.3187   -8.2292    3.2952 H   0  0
   -7.1899   -9.5794    2.8192 H   0  0
   -5.5105   -9.1772    1.1954 H   0  0
   -3.9655   -7.7274   -0.1065 H   0  0
   -5.4595   -6.9114   -0.6985 H   0  0
   -4.9799   -2.7220   -0.2428 H   0  0
   -5.0934   -2.2548    1.4745 H   0  0
   -7.1660   -3.5582    0.9531 H   0  0
   -6.3457   -4.5273   -0.3101 H   0  0
   -1.3817   -3.7117    1.1570 H   0  0
   -2.2765   -6.0839   -0.9645 H   0  0
   -1.5957   -5.5817    0.6333 H   0  0
   -0.9893   -3.6627   -1.1521 H   0  0
   -2.7600   -3.4571   -1.4604 H   0  0
   -0.2495   -0.8208   -0.4920 H   0  0
   -1.9380   -1.4127    1.9062 H   0  0
    0.3599   -2.4108    1.9958 H   0  0
    1.9909   -1.5428   -0.4286 H   0  0
    2.7364   -5.0927    0.7858 H   0  0
    2.2604   -4.1047   -0.6334 H   0  0
    1.1269   -4.3143    0.7406 H   0  0
    2.7374   -3.0409    2.2196 H   0  0
    3.8381    1.3519    1.3773 H   0  0
    3.8174    0.4560   -0.1767 H   0  0
    4.5307   -0.2806    1.2865 H   0  0
    2.2651   -0.2874    2.3726 H   0  0
    1.6085    0.4956    0.9071 H   0  0
    4.8296   -2.1395    1.1399 H   0  0
    4.3536   -2.9116   -0.3970 H   0  0
    4.7454   -3.9090    1.0415 H   0  0
   -3.7983   -0.7563    0.3040 H   0  0
   -2.6418   -0.8436   -1.0538 H   0  0
   -2.4465    0.3972    0.2254 H   0  0
   -8.5148   -4.6096    2.3626 H   0  0
   -7.6508   -5.4763    3.6693 H   0  0
   -9.1003   -6.1901    2.9309 H   0  0
   -3.1071   -2.9392    3.1031 H   0  0
   -2.2599   -4.4838    2.7829 H   0  0
   -3.9904   -4.4735    3.1843 H   0  0
  -10.1865   -9.5400    2.3529 H   0  0
  1  2  1  0
  2  3  1  0
  3  4  1  0
  4  5  1  0
  5  6  1  0
  1  6  1  0
  8  9  1  0
  9 10  1  0
  7 10  1  0
  5  8  2  0
  7  6  1  0
 11 12  1  0
 13 14  1  0
 11 14  1  0
 12  7  1  0
 10 13  1  0
 16 17  1  0
 15 17  1  0
 15 14  1  0
 18 19  1  0
 18 20  2  0
 22 23  1  0
 21 23  1  0
 21 20  1  0
 24 25  1  0
 21 25  1  0
 23 26  1  0
 15 19  1  0
 19 27  1  0
  6 28  1  0
 14 29  1  0
  3 30  1  0
 13 16  1  0
 10 31  1  0
  7 32  1  0
 13 33  1  0
  1 34  1  0
  1 35  1  0
  2 36  1  0
  2 37  1  0
  3 38  1  0
  4 39  1  0
  4 40  1  0
  8 41  1  0
  9 42  1  0
  9 43  1  0
 11 44  1  0
 11 45  1  0
 12 46  1  0
 12 47  1  0
 15 48  1  0
 16 49  1  0
 16 50  1  0
 17 51  1  0
 17 52  1  0
 18 53  1  0
 19 54  1  0
 20 55  1  0
 21 56  1  0
 22 57  1  0
 22 58  1  0
 22 59  1  0
 23 60  1  0
 24 61  1  0
 24 62  1  0
 24 63  1  0
 25 64  1  0
 25 65  1  0
 26 66  1  0
 26 67  1  0
 26 68  1  0
 27 69  1  0
 27 70  1  0
 27 71  1  0
 28 72  1  0
 28 73  1  0
 28 74  1  0
 29 75  1  0
 29 76  1  0
 29 77  1  0
 30 78  1  0
M  END
> <Name>
RB1999_6RSS

> <Clean Energy>
251.771

$$$$
RB1999_6RSR
  SciTegic12132405553D

 78 81  0  0  0  0            999 V2000
   -7.0446   -7.0842   -0.2866 C   0  0
   -8.1791   -8.2108   -0.0873 C   0  0
   -7.6345   -9.3755    0.8448 C   0  0  1  0  0  0
   -7.1721   -8.7803    2.2276 C   0  0
   -6.1696   -7.8105    1.7483 C   0  0
   -6.6317   -6.5161    1.1570 C   0  0  1  0  0  0
   -5.4649   -5.4258    1.2407 C   0  0  1  0  0  0
   -4.9146   -8.2652    1.4952 C   0  0
   -3.8581   -7.4413    0.6780 C   0  0
   -3.9496   -6.1009    1.2371 C   0  0  1  0  0  0
   -4.4631   -3.1631    0.4857 C   0  0
   -5.5951   -4.3364    0.2406 C   0  0
   -2.7701   -5.1067    0.6742 C   0  0  2  0  0  0
   -3.0459   -3.7215    1.1417 C   0  0  1  0  0  0
   -1.7146   -3.0925    0.6360 C   0  0  1  0  0  0
   -2.5330   -4.8883   -0.8802 C   0  0
   -1.7212   -3.5313   -0.8954 C   0  0
    0.0511   -1.3687    0.3347 C   0  0
   -1.3259   -1.5688    0.8791 C   0  0  1  0  0  0
    1.0913   -1.9546    0.9197 C   0  0
    2.4619   -1.7721    0.3592 C   0  0  2  0  0  0
    2.5471   -4.3099   -0.0325 C   0  0
    3.2799   -3.1283    0.6574 C   0  0
    4.3369    0.1458    0.5765 C   0  0
    2.9619   -0.4102    1.0270 C   0  0
    4.7201   -3.1795    0.0938 C   0  0
   -2.2640   -0.5351    0.2115 C   0  0
   -7.9046   -5.7996    1.7749 C   0  0
   -3.0974   -3.6236    2.7222 C   0  0
   -8.6484  -10.3559    1.0452 O   0  0
   -3.8112   -6.2977    2.3089 H   0  0
   -5.4933   -4.9291    2.2114 H   0  0
   -1.8054   -5.4658    1.0550 H   0  0
   -6.1842   -7.5461   -0.7735 H   0  0
   -7.4218   -6.2703   -0.9195 H   0  0
   -9.0615   -7.7689    0.3809 H   0  0
   -8.4663   -8.6256   -1.0626 H   0  0
   -6.7706   -9.8419    0.3525 H   0  0
   -8.0316   -8.3065    2.7115 H   0  0
   -6.7349   -9.5806    2.8392 H   0  0
   -4.6668   -9.2516    1.7914 H   0  0
   -2.8561   -7.8680    0.8161 H   0  0
   -4.1092   -7.4057   -0.3904 H   0  0
   -4.3366   -2.8623   -0.5600 H   0  0
   -4.7710   -2.2767    1.0550 H   0  0
   -6.5831   -3.8628    0.1949 H   0  0
   -5.3966   -4.8373   -0.7134 H   0  0
   -0.9636   -3.7030    1.1540 H   0  0
   -3.4719   -4.6353   -1.3483 H   0  0
   -2.1108   -5.7416   -1.4271 H   0  0
   -0.7230   -3.5332   -1.3553 H   0  0
   -2.3804   -2.8530   -1.4505 H   0  0
    0.1978   -0.7636   -0.5232 H   0  0
   -1.3092   -1.4257    1.9674 H   0  0
    0.9458   -2.5640    1.7764 H   0  0
    2.3953   -1.5909   -0.7223 H   0  0
    3.0872   -5.2419    0.1839 H   0  0
    2.5317   -4.1403   -1.1181 H   0  0
    1.5167   -4.4005    0.3372 H   0  0
    3.3068   -3.2961    1.7428 H   0  0
    4.5233    1.0990    1.0908 H   0  0
    4.3247    0.3133   -0.5097 H   0  0
    5.1314   -0.5490    0.8312 H   0  0
    2.9733   -0.5427    2.1176 H   0  0
    2.2249    0.3640    0.7723 H   0  0
    5.3328   -2.4035    0.5373 H   0  0
    4.6882   -3.0484   -0.9968 H   0  0
    5.1614   -4.1573    0.3314 H   0  0
   -3.2800   -0.6483    0.6010 H   0  0
   -2.2674   -0.6860   -0.8762 H   0  0
   -1.9016    0.4769    0.4371 H   0  0
   -8.1598   -4.9173    1.1760 H   0  0
   -7.6660   -5.4848    2.7997 H   0  0
   -8.7700   -6.4613    1.8081 H   0  0
   -3.1880   -2.5675    3.0094 H   0  0
   -2.1654   -4.0341    3.1338 H   0  0
   -3.9415   -4.1694    3.1377 H   0  0
   -9.4265   -9.9336    1.4864 H   0  0
  1  2  1  0
  2  3  1  0
  3  4  1  0
  4  5  1  0
  5  6  1  0
  1  6  1  0
  8  9  1  0
  9 10  1  0
  7 10  1  0
  5  8  2  0
  7  6  1  0
 11 12  1  0
 13 14  1  0
 11 14  1  0
 12  7  1  0
 10 13  1  0
 16 17  1  0
 15 17  1  0
 15 14  1  0
 18 19  1  0
 18 20  2  0
 22 23  1  0
 21 23  1  0
 21 20  1  0
 24 25  1  0
 21 25  1  0
 23 26  1  0
 15 19  1  0
 19 27  1  0
  6 28  1  0
 14 29  1  0
  3 30  1  0
 13 16  1  0
 10 31  1  0
  7 32  1  0
 13 33  1  0
  1 34  1  0
  1 35  1  0
  2 36  1  0
  2 37  1  0
  3 38  1  0
  4 39  1  0
  4 40  1  0
  8 41  1  0
  9 42  1  0
  9 43  1  0
 11 44  1  0
 11 45  1  0
 12 46  1  0
 12 47  1  0
 15 48  1  0
 16 49  1  0
 16 50  1  0
 17 51  1  0
 17 52  1  0
 18 53  1  0
 19 54  1  0
 20 55  1  0
 21 56  1  0
 22 57  1  0
 22 58  1  0
 22 59  1  0
 23 60  1  0
 24 61  1  0
 24 62  1  0
 24 63  1  0
 25 64  1  0
 25 65  1  0
 26 66  1  0
 26 67  1  0
 26 68  1  0
 27 69  1  0
 27 70  1  0
 27 71  1  0
 28 72  1  0
 28 73  1  0
 28 74  1  0
 29 75  1  0
 29 76  1  0
 29 77  1  0
 30 78  1  0
M  END
> <Name>
RB1999_6RSR

> <Clean Energy>
269.952

$$$$
RB1999_6RRS
  SciTegic12132405553D

 78 81  0  0  0  0            999 V2000
   -7.7786   -7.1462    0.0704 C   0  0
   -8.8580   -8.2861    0.2130 C   0  0
   -8.1708   -9.5912    0.7380 C   0  0  1  0  0  0
   -7.5061   -9.3209    2.1154 C   0  0
   -6.5364   -8.2150    1.8481 C   0  0
   -7.0886   -6.8544    1.4623 C   0  0  1  0  0  0
   -5.9439   -5.7738    1.4040 C   0  0  1  0  0  0
   -5.2324   -8.5179    1.7881 C   0  0
   -4.1725   -7.5098    1.3983 C   0  0
   -4.7444   -6.3563    0.4993 C   0  0  2  0  0  0
   -4.9736   -3.4345    1.0073 C   0  0
   -6.2866   -4.4431    0.8309 C   0  0
   -3.7279   -5.1622    0.0451 C   0  0  1  0  0  0
   -3.4988   -4.1610    1.0965 C   0  0  1  0  0  0
   -2.1505   -3.4615    0.6147 C   0  0  1  0  0  0
   -2.4379   -5.3860   -0.6450 C   0  0
   -2.1480   -3.7879   -0.8534 C   0  0
   -0.4228   -1.6819    0.5922 C   0  0
   -1.7892   -1.9888    1.1092 C   0  0  1  0  0  0
    0.6338   -2.3119    1.0956 C   0  0
    1.9966   -2.0276    0.5613 C   0  0  2  0  0  0
    2.1374   -4.4942   -0.1458 C   0  0
    2.8462   -3.3913    0.6859 C   0  0
    3.8276   -0.1088    1.0142 C   0  0
    2.4678   -0.7487    1.3936 C   0  0
    4.2849   -3.3380    0.1185 C   0  0
   -2.7395   -0.8760    0.6071 C   0  0
   -8.1735   -6.3102    2.4733 C   0  0
   -3.0699   -4.5442    2.5778 C   0  0
   -9.1421  -10.6252    0.8697 O   0  0
   -5.0831   -6.7706   -0.4556 H   0  0
   -5.5837   -5.5778    2.4099 H   0  0
   -4.2296   -4.5659   -0.7285 H   0  0
   -7.0233   -7.4950   -0.6434 H   0  0
   -8.2460   -6.2297   -0.3120 H   0  0
   -9.6407   -7.9815    0.9156 H   0  0
   -9.3128   -8.4829   -0.7669 H   0  0
   -7.3973   -9.9006    0.0212 H   0  0
   -8.2996   -9.0049    2.8014 H   0  0
   -6.9983  -10.2262    2.4738 H   0  0
   -4.9317   -9.5077    2.0164 H   0  0
   -3.8004   -7.0871    2.3251 H   0  0
   -3.3374   -8.0211    0.9021 H   0  0
   -5.0474   -2.8740    0.0653 H   0  0
   -5.0417   -2.7226    1.8401 H   0  0
   -7.1600   -3.9481    1.2730 H   0  0
   -6.4823   -4.6471   -0.2320 H   0  0
   -1.3524   -4.1314    0.9585 H   0  0
   -2.5561   -5.9367   -1.5873 H   0  0
   -1.6926   -5.8701    0.0019 H   0  0
   -1.1775   -3.5831   -1.3261 H   0  0
   -2.9576   -3.2804   -1.3960 H   0  0
   -0.2966   -0.9686   -0.1815 H   0  0
   -1.7608   -2.0198    2.2057 H   0  0
    0.5058   -3.0300    1.8667 H   0  0
    1.9212   -1.7138   -0.4888 H   0  0
    2.6996   -5.4331   -0.0487 H   0  0
    2.1136   -4.1903   -1.2016 H   0  0
    1.1107   -4.6544    0.2109 H   0  0
    2.8815   -3.6932    1.7417 H   0  0
    3.9944    0.7766    1.6434 H   0  0
    3.8067    0.1929   -0.0425 H   0  0
    4.6390   -0.8114    1.1786 H   0  0
    2.4870   -1.0164    2.4590 H   0  0
    1.7121    0.0338    1.2389 H   0  0
    4.8815   -2.6097    0.6552 H   0  0
    4.2456   -3.0720   -0.9469 H   0  0
    4.7494   -4.3274    0.2311 H   0  0
   -3.7513   -1.0488    0.9677 H   0  0
   -2.7376   -0.8616   -0.4914 H   0  0
   -2.3863    0.0931    0.9847 H   0  0
   -8.5725   -5.3554    2.1110 H   0  0
   -7.6986   -6.1577    3.4517 H   0  0
   -9.0020   -7.0131    2.5897 H   0  0
   -2.9280   -3.6270    3.1623 H   0  0
   -2.1272   -5.1070    2.5483 H   0  0
   -3.8297   -5.1496    3.0630 H   0  0
   -9.8351  -10.3403    1.5155 H   0  0
  1  2  1  0
  2  3  1  0
  3  4  1  0
  4  5  1  0
  5  6  1  0
  1  6  1  0
  8  9  1  0
  9 10  1  0
  7 10  1  0
  5  8  2  0
  7  6  1  0
 11 12  1  0
 13 14  1  0
 11 14  1  0
 12  7  1  0
 10 13  1  0
 16 17  1  0
 15 17  1  0
 15 14  1  0
 18 19  1  0
 18 20  2  0
 22 23  1  0
 21 23  1  0
 21 20  1  0
 24 25  1  0
 21 25  1  0
 23 26  1  0
 15 19  1  0
 19 27  1  0
  6 28  1  0
 14 29  1  0
  3 30  1  0
 13 16  1  0
 10 31  1  0
  7 32  1  0
 13 33  1  0
  1 34  1  0
  1 35  1  0
  2 36  1  0
  2 37  1  0
  3 38  1  0
  4 39  1  0
  4 40  1  0
  8 41  1  0
  9 42  1  0
  9 43  1  0
 11 44  1  0
 11 45  1  0
 12 46  1  0
 12 47  1  0
 15 48  1  0
 16 49  1  0
 16 50  1  0
 17 51  1  0
 17 52  1  0
 18 53  1  0
 19 54  1  0
 20 55  1  0
 21 56  1  0
 22 57  1  0
 22 58  1  0
 22 59  1  0
 23 60  1  0
 24 61  1  0
 24 62  1  0
 24 63  1  0
 25 64  1  0
 25 65  1  0
 26 66  1  0
 26 67  1  0
 26 68  1  0
 27 69  1  0
 27 70  1  0
 27 71  1  0
 28 72  1  0
 28 73  1  0
 28 74  1  0
 29 75  1  0
 29 76  1  0
 29 77  1  0
 30 78  1  0
M  END
> <Name>
RB1999_6RRS

> <Clean Energy>
204.348

$$$$
RB1999_7RS
  SciTegic12132405553D

 65 68  0  0  0  0            999 V2000
   -4.5297    2.0579    1.5791 C   0  0
   -6.0085    1.3927    2.1015 C   0  0
   -6.5318   -0.0046    1.2790 C   0  0  2  0  0  0
   -5.3194   -0.7416    1.0072 C   0  0  2  0  0  0
   -4.4844    0.2976   -0.1273 C   0  0  1  0  0  0
   -4.5087    1.9724    0.1168 C   0  0  2  0  0  0
   -3.2607    2.6029   -0.7650 C   0  0  2  0  0  0
   -3.0426   -0.3209   -0.0303 C   0  0
   -2.0626    0.3716   -0.9443 C   0  0
   -1.8403    1.8582   -0.5704 C   0  0  1  0  0  0
   -1.9248    4.7424   -1.1049 C   0  0
   -3.1006    4.1069   -0.4031 C   0  0
   -0.7880    2.4745   -1.4453 C   0  0
   -0.6622    3.8928   -0.8400 C   0  0  2  0  0  0
   -5.7901    2.8045   -0.4310 C   0  0
   -5.5544   -2.0947    0.3433 C   0  0
   -7.1129    0.1829   -0.0167 O   0  0
   -1.0825    2.0878    0.8150 C   0  0
   -0.5819    3.5373    0.6312 C   0  0
   -4.6281   -1.1361    2.4307 C   0  0
   -6.0437   -2.2182   -0.9737 O   0  0
   -5.3125   -3.1231    0.9844 O   0  0
   -0.1460    4.3356    1.6029 C   0  0
   -8.4324    0.6740    0.0744 C   0  0
   -9.1641    0.9213   -1.1983 C   0  0
  -10.4184    1.3922   -1.2865 C   0  0
  -10.8368    1.5288   -2.2516 H   0  0
  -11.2621    1.7378   -0.0869 C   0  0
   -8.9327    0.8783    1.1864 O   0  0
   -8.4390    0.6211   -2.4717 C   0  0
   -4.8578    0.2102   -1.1556 H   0  0
   -3.5035    2.4666   -1.8269 H   0  0
   -4.4476    3.0813    1.9662 H   0  0
   -3.6846    1.4736    1.9401 H   0  0
   -5.8042    1.1728    3.1571 H   0  0
   -6.8465    2.1026    2.0599 H   0  0
   -7.2563   -0.5531    1.8947 H   0  0
   -3.0944   -1.3804   -0.3033 H   0  0
   -2.6523   -0.2284    0.9834 H   0  0
   -1.0938   -0.1401   -0.8756 H   0  0
   -2.4379    0.3070   -1.9742 H   0  0
   -2.0783    4.8137   -2.1900 H   0  0
   -1.8068    5.7487   -0.6812 H   0  0
   -2.9278    4.1777    0.6710 H   0  0
   -3.9955    4.6837   -0.6315 H   0  0
   -1.0228    2.4819   -2.5178 H   0  0
    0.1429    1.9182   -1.2721 H   0  0
    0.1974    4.4455   -1.2413 H   0  0
   -5.6966    3.8618   -0.1824 H   0  0
   -6.7160    2.4767   -0.0415 H   0  0
   -5.8277    2.6930   -1.5231 H   0  0
   -1.6348    1.8527    1.7315 H   0  0
   -0.1686    1.4803    0.8027 H   0  0
   -3.7121   -1.7095    2.2393 H   0  0
   -5.3274   -1.7677    2.9949 H   0  0
   -4.3599   -0.2802    3.0430 H   0  0
   -6.2083   -1.3434   -1.3855 H   0  0
    0.1809    5.3180    1.3741 H   0  0
   -0.1273    3.9884    2.6043 H   0  0
  -12.2478    2.1061   -0.4050 H   0  0
  -10.7412    2.5009    0.5099 H   0  0
  -11.3720    0.8435    0.5436 H   0  0
   -9.1074    0.7241   -3.3380 H   0  0
   -8.0081   -0.3894   -2.4103 H   0  0
   -7.5905    1.3154   -2.5588 H   0  0
  1  2  1  0
  2  3  1  0
  3  4  1  0
  4  5  1  0
  5  6  1  0
  1  6  1  0
  8  9  1  0
  9 10  1  0
  7 10  1  0
  5  8  1  0
  7  6  1  0
 11 12  1  0
 13 14  1  0
 11 14  1  0
 12  7  1  0
 10 13  1  0
  6 15  1  0
  4 16  1  0
  3 17  1  0
 10 18  1  0
  4 20  1  0
 16 21  1  0
 16 22  2  0
 14 19  1  0
 19 18  1  0
 23 19  2  0
 24 17  1  0
 25 24  1  0
 25 26  2  0
 26 27  1  0
 28 26  1  0
 29 24  2  0
 30 25  1  0
  5 31  1  0
  7 32  1  0
  1 33  1  0
  1 34  1  0
  2 35  1  0
  2 36  1  0
  3 37  1  0
  8 38  1  0
  8 39  1  0
  9 40  1  0
  9 41  1  0
 11 42  1  0
 11 43  1  0
 12 44  1  0
 12 45  1  0
 13 46  1  0
 13 47  1  0
 14 48  1  0
 15 49  1  0
 15 50  1  0
 15 51  1  0
 18 52  1  0
 18 53  1  0
 20 54  1  0
 20 55  1  0
 20 56  1  0
 21 57  1  0
 23 58  1  0
 23 59  1  0
 28 60  1  0
 28 61  1  0
 28 62  1  0
 30 63  1  0
 30 64  1  0
 30 65  1  0
M  END
> <Name>
RB1999_7RS

> <Clean Energy>
174.565

$$$$
RB1999_7RR
  SciTegic12132405553D

 65 68  0  0  0  0            999 V2000
   -4.4744    1.7800    2.2376 C   0  0
   -5.9755    1.0382    2.5541 C   0  0
   -6.4350   -0.1927    1.4740 C   0  0  2  0  0  0
   -5.2075   -0.8868    1.1779 C   0  0  2  0  0  0
   -4.3067    0.3146    0.2848 C   0  0  1  0  0  0
   -4.3767    1.9493    0.7855 C   0  0  2  0  0  0
   -3.1261    2.7760    0.1200 C   0  0  1  0  0  0
   -2.8512   -0.3217    0.4274 C   0  0
   -1.8002    0.4540   -0.3112 C   0  0
   -1.6341    1.9282    0.1952 C   0  0  1  0  0  0
   -1.8804    4.2363   -1.1324 C   0  0
   -3.0826    3.1083   -1.2594 C   0  0
   -0.3984    2.5324   -0.6633 C   0  0
   -0.5659    3.8467   -0.2174 C   0  0  2  0  0  0
   -5.6191    2.9093    0.3802 C   0  0
   -5.3829   -2.1136    0.2879 C   0  0
   -6.9163    0.2208    0.1885 O   0  0
   -1.1024    2.1496    1.5776 C   0  0
   -0.7890    3.5979    1.3163 C   0  0
   -4.6198   -1.5136    2.5674 C   0  0
   -5.7863   -2.0215   -1.0607 O   0  0
   -5.1688   -3.2325    0.7669 O   0  0
   -0.6995    4.5346    2.2558 C   0  0
   -8.2316    0.7181    0.2589 C   0  0
   -8.8548    1.1937   -1.0063 C   0  0
  -10.0940    1.6996   -1.1119 C   0  0
  -10.4309    2.0076   -2.0694 H   0  0
  -11.0305    1.8538    0.0584 C   0  0
   -8.8180    0.7438    1.3472 O   0  0
   -8.0293    1.0995   -2.2504 C   0  0
   -4.6032    0.3747   -0.7702 H   0  0
   -3.1466    3.7778    0.5721 H   0  0
   -4.4241    2.7254    2.7924 H   0  0
   -3.6462    1.1457    2.5443 H   0  0
   -5.8381    0.6445    3.5689 H   0  0
   -6.8148    1.7471    2.5800 H   0  0
   -7.2023   -0.8273    1.9359 H   0  0
   -2.8665   -1.3413    0.0274 H   0  0
   -2.5530   -0.3493    1.4769 H   0  0
   -0.8342   -0.0557   -0.2047 H   0  0
   -2.0837    0.4660   -1.3699 H   0  0
   -1.5685    4.4289   -2.1673 H   0  0
   -2.2748    5.1654   -0.6986 H   0  0
   -3.9642    3.6295   -1.6467 H   0  0
   -2.8817    2.2311   -1.8722 H   0  0
   -0.4643    2.4991   -1.7619 H   0  0
    0.5118    2.0216   -0.3227 H   0  0
    0.2156    4.5903   -0.4219 H   0  0
   -5.4540    3.8952    0.8348 H   0  0
   -6.5717    2.5588    0.6903 H   0  0
   -5.6630    3.0187   -0.7061 H   0  0
   -1.7513    1.9097    2.4179 H   0  0
   -0.1522    1.6096    1.6785 H   0  0
   -3.6910   -2.0575    2.3534 H   0  0
   -5.3568   -2.2221    2.9689 H   0  0
   -4.3985   -0.7719    3.3293 H   0  0
   -5.9360   -1.0920   -1.3348 H   0  0
   -0.4687    5.5335    1.9864 H   0  0
   -0.8604    4.2811    3.2725 H   0  0
  -11.9842    2.2913   -0.2692 H   0  0
  -10.5547    2.4934    0.8163 H   0  0
  -11.1977    0.8678    0.5159 H   0  0
   -8.6179    1.3801   -3.1350 H   0  0
   -7.6295    0.0783   -2.3386 H   0  0
   -7.1593    1.7640   -2.1407 H   0  0
  1  2  1  0
  2  3  1  0
  3  4  1  0
  4  5  1  0
  5  6  1  0
  1  6  1  0
  8  9  1  0
  9 10  1  0
  7 10  1  0
  5  8  1  0
  7  6  1  0
 11 12  1  0
 13 14  1  0
 11 14  1  0
 12  7  1  0
 10 13  1  0
  6 15  1  0
  4 16  1  0
  3 17  1  0
 10 18  1  0
  4 20  1  0
 16 21  1  0
 16 22  2  0
 14 19  1  0
 19 18  1  0
 23 19  2  0
 24 17  1  0
 25 24  1  0
 25 26  2  0
 26 27  1  0
 28 26  1  0
 29 24  2  0
 30 25  1  0
  5 31  1  0
  7 32  1  0
  1 33  1  0
  1 34  1  0
  2 35  1  0
  2 36  1  0
  3 37  1  0
  8 38  1  0
  8 39  1  0
  9 40  1  0
  9 41  1  0
 11 42  1  0
 11 43  1  0
 12 44  1  0
 12 45  1  0
 13 46  1  0
 13 47  1  0
 14 48  1  0
 15 49  1  0
 15 50  1  0
 15 51  1  0
 18 52  1  0
 18 53  1  0
 20 54  1  0
 20 55  1  0
 20 56  1  0
 21 57  1  0
 23 58  1  0
 23 59  1  0
 28 60  1  0
 28 61  1  0
 28 62  1  0
 30 63  1  0
 30 64  1  0
 30 65  1  0
M  END
> <Name>
RB1999_7RR

> <Clean Energy>
233.663

$$$$
RB1999_7SS
  SciTegic12132405553D

 65 68  0  0  0  0            999 V2000
   -5.2968    2.2693    0.9214 C   0  0
   -6.2412    1.4683    2.0518 C   0  0
   -6.7522    0.2578    1.4183 C   0  0  2  0  0  0
   -5.3742   -0.6741    1.2185 C   0  0  2  0  0  0
   -3.9795    0.2440    0.9136 C   0  0  2  0  0  0
   -4.3124    1.3538   -0.1008 C   0  0  2  0  0  0
   -2.9540    2.1018   -0.7763 C   0  0  2  0  0  0
   -2.7947   -0.4725    0.4860 C   0  0
   -1.5440    0.5585    0.5067 C   0  0
   -1.8273    2.1309    0.2338 C   0  0  1  0  0  0
   -2.1353    4.3032   -1.6796 C   0  0
   -3.3585    3.4918   -1.2810 C   0  0
   -0.5856    2.8164   -0.2522 C   0  0
   -1.1027    4.2602   -0.4788 C   0  0  2  0  0  0
   -5.0173    0.8892   -1.4623 C   0  0
   -5.7524   -1.7953    0.2174 C   0  0
   -7.3928    0.7025    0.2036 O   0  0
   -2.0271    3.0960    1.5046 C   0  0
   -1.8099    4.4767    0.8417 C   0  0
   -5.0001   -1.4058    2.5408 C   0  0
   -6.9174   -2.5694    0.3860 O   0  0
   -5.0120   -2.0566   -0.7364 O   0  0
   -2.1762    5.6506    1.3500 C   0  0
   -8.6386    1.3444    0.4143 C   0  0
   -9.3582    1.8708   -0.7824 C   0  0
  -10.5491    2.4918   -0.7540 C   0  0
  -10.9630    2.8244   -1.6723 H   0  0
  -11.3283    2.7423    0.5115 C   0  0
   -9.1044    1.4330    1.5575 O   0  0
   -8.7005    1.6948   -2.1124 C   0  0
   -3.6854    0.7649    1.8352 H   0  0
   -2.5154    1.4733   -1.5648 H   0  0
   -5.8482    2.9743    0.2850 H   0  0
   -4.6941    2.8363    1.6063 H   0  0
   -5.6585    1.1537    2.9214 H   0  0
   -7.0196    2.1653    2.3874 H   0  0
   -7.4848   -0.3429    1.9728 H   0  0
   -3.0187   -0.8174   -0.5298 H   0  0
   -2.5221   -1.3329    1.1092 H   0  0
   -0.9032    0.4889    1.3951 H   0  0
   -0.9870    0.1571   -0.3499 H   0  0
   -1.6419    3.9150   -2.5809 H   0  0
   -2.4833    5.3291   -1.8594 H   0  0
   -3.8215    4.0288   -0.4593 H   0  0
   -4.0884    3.4369   -2.0961 H   0  0
   -0.1603    2.3860   -1.1684 H   0  0
    0.1582    2.7859    0.5550 H   0  0
   -0.2919    4.9658   -0.7033 H   0  0
   -5.2637    1.7604   -2.0747 H   0  0
   -5.9245    0.3456   -1.2833 H   0  0
   -4.3244    0.2431   -2.0175 H   0  0
   -2.9149    2.9661    2.1079 H   0  0
   -1.1587    2.9598    2.1616 H   0  0
   -4.1266   -2.0488    2.3781 H   0  0
   -5.8498   -2.0242    2.8608 H   0  0
   -4.7684   -0.6697    3.3215 H   0  0
   -7.4198   -2.3026    1.1891 H   0  0
   -1.9782    6.5441    0.8147 H   0  0
   -2.6666    5.6905    2.2889 H   0  0
  -12.2669    3.2681    0.2858 H   0  0
  -10.7112    3.3368    1.2009 H   0  0
  -11.5361    1.7795    1.0008 H   0  0
   -9.3785    1.9854   -2.9272 H   0  0
   -8.3652    0.6523   -2.2146 H   0  0
   -7.7934    2.3169   -2.1333 H   0  0
  1  2  1  0
  2  3  1  0
  3  4  1  0
  4  5  1  0
  5  6  1  0
  1  6  1  0
  8  9  1  0
  9 10  1  0
  7 10  1  0
  5  8  1  0
  7  6  1  0
 11 12  1  0
 13 14  1  0
 11 14  1  0
 12  7  1  0
 10 13  1  0
  6 15  1  0
  4 16  1  0
  3 17  1  0
 10 18  1  0
  4 20  1  0
 16 21  1  0
 16 22  2  0
 14 19  1  0
 19 18  1  0
 23 19  2  0
 24 17  1  0
 25 24  1  0
 25 26  2  0
 26 27  1  0
 28 26  1  0
 29 24  2  0
 30 25  1  0
  5 31  1  0
  7 32  1  0
  1 33  1  0
  1 34  1  0
  2 35  1  0
  2 36  1  0
  3 37  1  0
  8 38  1  0
  8 39  1  0
  9 40  1  0
  9 41  1  0
 11 42  1  0
 11 43  1  0
 12 44  1  0
 12 45  1  0
 13 46  1  0
 13 47  1  0
 14 48  1  0
 15 49  1  0
 15 50  1  0
 15 51  1  0
 18 52  1  0
 18 53  1  0
 20 54  1  0
 20 55  1  0
 20 56  1  0
 21 57  1  0
 23 58  1  0
 23 59  1  0
 28 60  1  0
 28 61  1  0
 28 62  1  0
 30 63  1  0
 30 64  1  0
 30 65  1  0
M  END
> <Name>
RB1999_7SS

> <Clean Energy>
238.75

$$$$
RB1999_7SR
  SciTegic12132405553D

 65 68  0  0  0  0            999 V2000
   -5.7382    2.6037    0.8785 C   0  0
   -6.6119    1.8522    2.0746 C   0  0
   -6.9181    0.5201    1.6109 C   0  0  2  0  0  0
   -5.4131   -0.2439    1.5749 C   0  0  2  0  0  0
   -4.1857    0.8001    1.0716 C   0  0  2  0  0  0
   -4.5972    1.7173    0.1141 C   0  0  2  0  0  0
   -3.3384    2.8041    0.0219 C   0  0  1  0  0  0
   -2.8644   -0.0447    0.5888 C   0  0
   -1.9108    0.7669   -0.4446 C   0  0
   -1.7828    2.1483   -0.0588 C   0  0  1  0  0  0
   -2.3423    4.8710   -0.7614 C   0  0
   -3.4508    3.7656   -1.0349 C   0  0
   -0.7248    3.0208   -0.9388 C   0  0
   -0.9320    4.3197   -0.2470 C   0  0  2  0  0  0
   -5.0800    1.0031   -1.2699 C   0  0
   -5.5365   -1.5872    0.7639 C   0  0
   -7.5596    0.7209    0.3308 O   0  0
   -1.1077    2.3566    1.2945 C   0  0
   -0.9456    3.8295    1.2054 C   0  0
   -4.8718   -0.6806    2.9674 C   0  0
   -6.4885   -1.8685   -0.2511 O   0  0
   -4.7365   -2.4885    1.0393 O   0  0
   -0.8261    4.6289    2.2605 C   0  0
   -8.8889    1.2049    0.4107 C   0  0
   -9.6025    1.4624   -0.8718 C   0  0
  -10.8642    1.9114   -0.9758 C   0  0
  -11.2661    2.0577   -1.9465 H   0  0
  -11.7389    2.2193    0.2122 C   0  0
   -9.4242    1.3749    1.5136 O   0  0
   -8.8512    1.2006   -2.1367 C   0  0
   -3.9381    1.5251    1.8628 H   0  0
   -3.3521    3.3806    0.9498 H   0  0
   -6.3052    3.1708    0.1279 H   0  0
   -5.2277    3.3203    1.5334 H   0  0
   -6.0320    1.7437    2.9952 H   0  0
   -7.4929    2.4714    2.2856 H   0  0
   -7.5876   -0.0876    2.2335 H   0  0
   -3.1505   -0.8969   -0.0350 H   0  0
   -2.3621   -0.4158    1.4917 H   0  0
   -0.9444    0.2532   -0.5244 H   0  0
   -2.3737    0.7958   -1.4311 H   0  0
   -2.2297    5.3537   -1.7409 H   0  0
   -2.6615    5.6202   -0.0247 H   0  0
   -4.4264    4.2657   -1.0850 H   0  0
   -3.2714    3.2178   -1.9720 H   0  0
   -0.9052    3.1030   -2.0210 H   0  0
    0.2663    2.5855   -0.7546 H   0  0
   -0.2020    5.1255   -0.3999 H   0  0
   -5.4026    1.7827   -1.9719 H   0  0
   -5.9121    0.3388   -1.0944 H   0  0
   -4.2766    0.4334   -1.7287 H   0  0
   -1.6469    1.9834    2.1753 H   0  0
   -0.1072    1.9064    1.2613 H   0  0
   -3.9035   -1.1812    2.8596 H   0  0
   -5.5868   -1.3752    3.4280 H   0  0
   -4.7528    0.2016    3.6103 H   0  0
   -7.0817   -1.1411   -0.4350 H   0  0
   -0.7135    5.6740    2.1223 H   0  0
   -0.8445    4.2203    3.2384 H   0  0
  -12.7240    2.5768   -0.1197 H   0  0
  -11.2440    2.9792    0.8346 H   0  0
  -11.8464    1.3110    0.8229 H   0  0
   -9.5132    1.2803   -3.0104 H   0  0
   -8.3749    0.2103   -2.0755 H   0  0
   -8.0348    1.9342   -2.2108 H   0  0
  1  2  1  0
  2  3  1  0
  3  4  1  0
  4  5  1  0
  5  6  1  0
  1  6  1  0
  8  9  1  0
  9 10  1  0
  7 10  1  0
  5  8  1  0
  7  6  1  0
 11 12  1  0
 13 14  1  0
 11 14  1  0
 12  7  1  0
 10 13  1  0
  6 15  1  0
  4 16  1  0
  3 17  1  0
 10 18  1  0
  4 20  1  0
 16 21  1  0
 16 22  2  0
 14 19  1  0
 19 18  1  0
 23 19  2  0
 24 17  1  0
 25 24  1  0
 25 26  2  0
 26 27  1  0
 28 26  1  0
 29 24  2  0
 30 25  1  0
  5 31  1  0
  7 32  1  0
  1 33  1  0
  1 34  1  0
  2 35  1  0
  2 36  1  0
  3 37  1  0
  8 38  1  0
  8 39  1  0
  9 40  1  0
  9 41  1  0
 11 42  1  0
 11 43  1  0
 12 44  1  0
 12 45  1  0
 13 46  1  0
 13 47  1  0
 14 48  1  0
 15 49  1  0
 15 50  1  0
 15 51  1  0
 18 52  1  0
 18 53  1  0
 20 54  1  0
 20 55  1  0
 20 56  1  0
 21 57  1  0
 23 58  1  0
 23 59  1  0
 28 60  1  0
 28 61  1  0
 28 62  1  0
 30 63  1  0
 30 64  1  0
 30 65  1  0
M  END
> <Name>
RB1999_7SR

> <Clean Energy>
288.195

$$$$
RB1999_5R
  SciTegic12132405553D

 50 53  0  0  0  0            999 V2000
   -5.9466    2.5531    0.7324 C   0  0
   -7.0202    1.7466    1.6590 C   0  0
   -7.5085    0.6617    0.8797 C   0  0
   -6.2391   -0.3687    0.6902 C   0  0  2  0  0  0
   -4.7875    0.4756    0.4409 C   0  0  2  0  0  0
   -5.0019    1.6948   -0.3128 C   0  0  2  0  0  0
   -3.6322    2.4936   -0.3821 C   0  0
   -3.6297   -0.4769   -0.0069 C   0  0
   -2.4862    0.3328   -0.6856 C   0  0
   -2.2547    1.7239   -0.1529 C   0  0  1  0  0  0
   -2.3781    4.5963   -0.5796 C   0  0
   -3.6431    3.8157   -0.5620 C   0  0
   -1.0767    2.4570   -0.8142 C   0  0
   -1.1692    3.7925   -0.0656 C   0  0  2  0  0  0
   -5.6059    1.5284   -1.7681 C   0  0
   -6.7993   -1.3530   -0.3883 C   0  0
   -7.8069    1.1193   -0.0695 H   0  0
   -1.7469    1.8656    1.3244 C   0  0
   -1.4044    3.3188    1.3336 C   0  0
   -5.9781   -1.2298    1.9596 C   0  0
   -6.2449   -1.6104   -1.6625 O   0  0
   -7.8337   -1.9628   -0.0976 O   0  0
   -1.3261    4.0774    2.4222 C   0  0
   -4.4572    0.9553    1.3725 H   0  0
   -6.3536    3.4141    0.1860 H   0  0
   -5.3053    2.9300    1.5418 H   0  0
   -6.5335    1.3056    2.5321 H   0  0
   -7.7920    2.4504    1.9977 H   0  0
   -8.3600    0.1117    1.3020 H   0  0
   -3.9250   -1.1637   -0.7958 H   0  0
   -3.3301   -1.0495    0.8799 H   0  0
   -1.5769   -0.2817   -0.6860 H   0  0
   -2.7882    0.5189   -1.7256 H   0  0
   -2.1901    4.8822   -1.6231 H   0  0
   -2.5120    5.5213   -0.0027 H   0  0
   -4.5584    4.3275   -0.7037 H   0  0
   -1.1216    2.5831   -1.9042 H   0  0
   -0.1709    1.9016   -0.5365 H   0  0
   -0.2920    4.4439   -0.1754 H   0  0
   -5.7441    2.5230   -2.2117 H   0  0
   -6.5679    1.0185   -1.7385 H   0  0
   -4.9095    0.9480   -2.3872 H   0  0
   -2.4456    1.5348    2.1048 H   0  0
   -0.8064    1.3087    1.4256 H   0  0
   -5.1777   -1.9535    1.7643 H   0  0
   -6.8973   -1.7705    2.2226 H   0  0
   -5.6841   -0.5797    2.7944 H   0  0
   -5.4550   -1.1078   -1.8356 H   0  0
   -1.0779    5.1047    2.3351 H   0  0
   -1.5126    3.6544    3.3761 H   0  0
  1  2  1  0
  2  3  1  0
  3  4  1  0
  4  5  1  0
  5  6  1  0
  1  6  1  0
  8  9  1  0
  9 10  1  0
  7 10  1  0
  5  8  1  0
  7  6  1  0
 11 12  1  0
 13 14  1  0
 11 14  1  0
 12  7  2  0
 10 13  1  0
  6 15  1  0
  4 16  1  0
  3 17  1  0
 10 18  1  0
  4 20  1  0
 16 21  1  0
 16 22  2  0
 14 19  1  0
 19 18  1  0
 23 19  2  0
  5 24  1  0
  1 25  1  0
  1 26  1  0
  2 27  1  0
  2 28  1  0
  3 29  1  0
  8 30  1  0
  8 31  1  0
  9 32  1  0
  9 33  1  0
 11 34  1  0
 11 35  1  0
 12 36  1  0
 13 37  1  0
 13 38  1  0
 14 39  1  0
 15 40  1  0
 15 41  1  0
 15 42  1  0
 18 43  1  0
 18 44  1  0
 20 45  1  0
 20 46  1  0
 20 47  1  0
 21 48  1  0
 23 49  1  0
 23 50  1  0
M  END
> <Name>
RB1999_5R

> <Clean Energy>
203.141

$$$$
RB1999_5S
  SciTegic12132405553D

 50 53  0  0  0  0            999 V2000
   -5.3271    2.2250    1.1442 C   0  0
   -6.8893    1.6560    1.1848 C   0  0
   -7.1755    0.3193    0.2393 C   0  0
   -6.0091   -0.5296    0.3310 C   0  0  2  0  0  0
   -4.8110    0.4195   -0.4743 C   0  0  1  0  0  0
   -4.8385    2.0814   -0.2288 C   0  0  2  0  0  0
   -3.3975    2.7054   -0.4201 C   0  0
   -3.5074   -0.2984   -0.0754 C   0  0
   -2.3753    0.3684   -0.8230 C   0  0
   -2.1173    1.8112   -0.3569 C   0  0  1  0  0  0
   -1.9519    4.6960   -0.6168 C   0  0
   -3.2695    4.0420   -0.5041 C   0  0
   -0.9038    2.4552   -1.0361 C   0  0
   -0.8256    3.7665   -0.2356 C   0  0  2  0  0  0
   -5.8328    2.9038   -1.2315 C   0  0
   -6.1428   -1.8351   -0.4271 C   0  0
   -8.1043   -0.1613    0.5733 H   0  0
   -1.5504    1.8690    1.1064 C   0  0
   -1.0537    3.2730    1.1546 C   0  0
   -5.7845   -0.9685    1.8716 C   0  0
   -6.3939   -1.8614   -1.8101 O   0  0
   -6.0350   -2.9028    0.1857 O   0  0
   -0.8485    3.9751    2.2649 C   0  0
   -4.8867    0.3654   -1.5679 H   0  0
   -5.3214    3.2595    1.5113 H   0  0
   -4.6560    1.6185    1.7631 H   0  0
   -7.0928    1.4562    2.2460 H   0  0
   -7.6068    2.4113    0.8349 H   0  0
   -7.2628    0.5789   -0.8209 H   0  0
   -3.5722   -1.3443   -0.3928 H   0  0
   -3.3238   -0.2553    1.0023 H   0  0
   -1.4466   -0.1956   -0.6655 H   0  0
   -2.6308    0.3602   -1.8912 H   0  0
   -1.8183    5.0046   -1.6622 H   0  0
   -1.9442    5.6026    0.0033 H   0  0
   -4.1141    4.6655   -0.4831 H   0  0
   -0.9740    2.6136   -2.1204 H   0  0
   -0.0431    1.8128   -0.8063 H   0  0
    0.1079    4.3284   -0.3715 H   0  0
   -5.8344    3.9660   -0.9706 H   0  0
   -6.8572    2.5528   -1.2102 H   0  0
   -5.4586    2.7840   -2.2570 H   0  0
   -2.2446    1.5712    1.9047 H   0  0
   -0.6605    1.2280    1.1536 H   0  0
   -4.8965   -1.6105    1.9379 H   0  0
   -6.6611   -1.5403    2.2046 H   0  0
   -5.6398   -0.1250    2.5427 H   0  0
   -6.4670   -0.9494   -2.1785 H   0  0
   -0.4931    4.9723    2.2031 H   0  0
   -1.0414    3.5370    3.2107 H   0  0
  1  2  1  0
  2  3  1  0
  3  4  1  0
  4  5  1  0
  5  6  1  0
  1  6  1  0
  8  9  1  0
  9 10  1  0
  7 10  1  0
  5  8  1  0
  7  6  1  0
 11 12  1  0
 13 14  1  0
 11 14  1  0
 12  7  2  0
 10 13  1  0
  6 15  1  0
  4 16  1  0
  3 17  1  0
 10 18  1  0
  4 20  1  0
 16 21  1  0
 16 22  2  0
 14 19  1  0
 19 18  1  0
 23 19  2  0
  5 24  1  0
  1 25  1  0
  1 26  1  0
  2 27  1  0
  2 28  1  0
  3 29  1  0
  8 30  1  0
  8 31  1  0
  9 32  1  0
  9 33  1  0
 11 34  1  0
 11 35  1  0
 12 36  1  0
 13 37  1  0
 13 38  1  0
 14 39  1  0
 15 40  1  0
 15 41  1  0
 15 42  1  0
 18 43  1  0
 18 44  1  0
 20 45  1  0
 20 46  1  0
 20 47  1  0
 21 48  1  0
 23 49  1  0
 23 50  1  0
M  END
> <Name>
RB1999_5S

> <Clean Energy>
171.739

$$$$
RB1999_3RSS
  SciTegic12132405553D

 55 58  0  0  0  0            999 V2000
   -5.0825    2.0910    1.2685 C   0  0
   -6.6529    1.5835    1.5642 C   0  0
   -7.2068    0.3573    0.5608 C   0  0
   -6.1022   -0.5434    0.3666 C   0  0  2  0  0  0
   -5.0156    0.4394   -0.5578 C   0  0  1  0  0  0
   -4.9107    2.0719   -0.2034 C   0  0  2  0  0  0
   -3.5133    2.6156   -0.8858 C   0  0  2  0  0  0
   -3.6714   -0.3297   -0.3347 C   0  0
   -2.5225    0.3250   -1.0703 C   0  0
   -2.2188    1.7660   -0.5642 C   0  0  1  0  0  0
   -1.9486    4.5378   -0.9602 C   0  0
   -3.2638    4.0224   -0.4481 C   0  0
   -0.8887    2.3000   -1.2847 C   0  0
   -0.7066    3.6253   -0.5666 C   0  0  2  0  0  0
   -6.0567    3.0361   -0.8795 C   0  0
   -6.4211   -1.7684   -0.4649 C   0  0
   -8.0894   -0.1100    1.0167 H   0  0
   -1.6106    1.8153    0.8537 C   0  0
   -0.7745    3.2053    0.9772 C   0  0  2  0  0  0
   -5.6592   -1.1379    1.8122 C   0  0
   -6.9057   -1.6595   -1.7798 O   0  0
   -6.2596   -2.8908    0.0263 O   0  0
   -1.2934    4.3380    1.6857 O   0  0
   -5.2611    0.4635   -1.6270 H   0  0
   -3.6265    2.5494   -1.9757 H   0  0
    0.5087    2.7305    1.6749 C   0  0
   -4.9436    3.0787    1.7260 H   0  0
   -4.3478    1.3988    1.6820 H   0  0
   -6.6640    1.2845    2.6213 H   0  0
   -7.3742    2.4025    1.4368 H   0  0
   -7.4659    0.7252   -0.4373 H   0  0
   -3.7877   -1.3596   -0.6914 H   0  0
   -3.4082   -0.3420    0.7245 H   0  0
   -1.6199   -0.2814   -0.9196 H   0  0
   -2.7640    0.3603   -2.1408 H   0  0
   -1.9606    4.6538   -2.0523 H   0  0
   -1.8225    5.5230   -0.4920 H   0  0
   -3.2271    4.0413    0.6360 H   0  0
   -4.0580    4.6962   -0.7661 H   0  0
   -0.9906    2.4005   -2.3731 H   0  0
   -0.0483    1.6327   -1.0529 H   0  0
    0.1696    4.2300   -0.8349 H   0  0
   -5.9140    4.0741   -0.5679 H   0  0
   -7.0714    2.7567   -0.6320 H   0  0
   -5.9519    2.9705   -1.9707 H   0  0
   -2.1281    1.4492    1.7499 H   0  0
   -0.8182    1.0963    0.6210 H   0  0
   -4.8120   -1.8227    1.6760 H   0  0
   -6.5037   -1.7007    2.2323 H   0  0
   -5.3577   -0.3741    2.5248 H   0  0
   -7.0002   -0.7155   -2.0497 H   0  0
   -0.6446    5.0834    1.6341 H   0  0
    0.2684    2.4063    2.6965 H   0  0
    1.2291    3.5591    1.7115 H   0  0
    0.9461    1.8907    1.1168 H   0  0
  1  2  1  0
  2  3  1  0
  3  4  1  0
  4  5  1  0
  5  6  1  0
  1  6  1  0
  8  9  1  0
  9 10  1  0
  7 10  1  0
  5  8  1  0
  7  6  1  0
 11 12  1  0
 13 14  1  0
 11 14  1  0
 12  7  1  0
 10 13  1  0
  6 15  1  0
  4 16  1  0
  3 17  1  0
 10 18  1  0
  4 20  1  0
 16 21  1  0
 16 22  2  0
 14 19  1  0
 19 18  1  0
  5 24  1  0
  7 25  1  0
 19 23  1  0
 19 26  1  0
  1 27  1  0
  1 28  1  0
  2 29  1  0
  2 30  1  0
  3 31  1  0
  8 32  1  0
  8 33  1  0
  9 34  1  0
  9 35  1  0
 11 36  1  0
 11 37  1  0
 12 38  1  0
 12 39  1  0
 13 40  1  0
 13 41  1  0
 14 42  1  0
 15 43  1  0
 15 44  1  0
 15 45  1  0
 18 46  1  0
 18 47  1  0
 20 48  1  0
 20 49  1  0
 20 50  1  0
 21 51  1  0
 23 52  1  0
 26 53  1  0
 26 54  1  0
 26 55  1  0
M  END
> <Name>
RB1999_3RSS

> <Clean Energy>
271965000000000

$$$$
RB1999_3RRR
  SciTegic12132405553D

 55 58  0  0  0  0            999 V2000
   -4.9918    1.7100    2.0142 C   0  0
   -6.5532    1.1428    2.2482 C   0  0
   -7.1460    0.1703    1.0169 C   0  0
   -6.0581   -0.6733    0.6086 C   0  0  2  0  0  0
   -4.9888    0.4780   -0.1159 C   0  0  1  0  0  0
   -4.8788    2.0209    0.5726 C   0  0  2  0  0  0
   -3.5387    2.7707    0.0311 C   0  0  1  0  0  0
   -3.6316   -0.3389   -0.0488 C   0  0
   -2.4895    0.4095   -0.6746 C   0  0
   -2.1745    1.7940    0.0354 C   0  0  1  0  0  0
   -2.0565    4.1802   -0.9667 C   0  0
   -3.3860    3.2456   -1.2840 C   0  0
   -0.7403    2.3552   -0.7300 C   0  0
   -0.7569    3.5614   -0.0761 C   0  0  2  0  0  0
   -6.0268    3.1344    0.2243 C   0  0
   -6.4052   -1.6935   -0.4558 C   0  0
   -8.0212   -0.3806    1.3850 H   0  0
   -1.6081    1.6968    1.3550 C   0  0
   -0.9129    3.0996    1.5133 C   0  0  1  0  0  0
   -5.5902   -1.5659    1.8867 C   0  0
   -6.9221   -1.3076   -1.7048 O   0  0
   -6.2385   -2.8948   -0.2183 O   0  0
    0.2972    2.7525    2.1787 O   0  0
   -5.2554    0.7102   -1.1548 H   0  0
   -3.4698    3.6904    0.5805 H   0  0
   -1.5410    4.2949    2.3133 C   0  0
   -4.8346    2.5777    2.6678 H   0  0
   -4.2437    0.9521    2.2415 H   0  0
   -6.5302    0.6189    3.2135 H   0  0
   -7.2754    1.9664    2.3311 H   0  0
   -7.4266    0.7490    0.1294 H   0  0
   -3.7576   -1.2907   -0.5778 H   0  0
   -3.3597   -0.5356    0.9903 H   0  0
   -1.5858   -0.2116   -0.6294 H   0  0
   -2.7471    0.5850   -1.7242 H   0  0
   -1.6923    4.4714   -1.9607 H   0  0
   -2.3713    5.0847   -0.4287 H   0  0
   -4.1791    3.9175   -1.6287 H   0  0
   -3.2617    2.4433   -2.0017 H   0  0
   -0.7912    2.5071   -1.8189 H   0  0
    0.0967    1.6889   -0.4842 H   0  0
    0.0455    4.3022   -0.1891 H   0  0
   -5.7980    4.0548    0.7788 H   0  0
   -7.0361    2.8292    0.4652 H   0  0
   -6.0114    3.3491   -0.8478 H   0  0
   -2.1229    1.2775    2.2273 H   0  0
   -0.7933    1.0156    1.0856 H   0  0
   -4.7551   -2.2132    1.5891 H   0  0
   -6.4324   -2.1990    2.1970 H   0  0
   -5.2633   -0.9749    2.7387 H   0  0
   -7.0180   -0.3279   -1.7658 H   0  0
    0.0876    2.4332    3.0902 H   0  0
   -0.8537    5.1507    2.2762 H   0  0
   -1.6877    3.9886    3.3578 H   0  0
   -2.4980    4.5911    1.8928 H   0  0
  1  2  1  0
  2  3  1  0
  3  4  1  0
  4  5  1  0
  5  6  1  0
  1  6  1  0
  8  9  1  0
  9 10  1  0
  7 10  1  0
  5  8  1  0
  7  6  1  0
 11 12  1  0
 13 14  1  0
 11 14  1  0
 12  7  1  0
 10 13  1  0
  6 15  1  0
  4 16  1  0
  3 17  1  0
 10 18  1  0
  4 20  1  0
 16 21  1  0
 16 22  2  0
 14 19  1  0
 19 18  1  0
  5 24  1  0
  7 25  1  0
 19 23  1  0
 19 26  1  0
  1 27  1  0
  1 28  1  0
  2 29  1  0
  2 30  1  0
  3 31  1  0
  8 32  1  0
  8 33  1  0
  9 34  1  0
  9 35  1  0
 11 36  1  0
 11 37  1  0
 12 38  1  0
 12 39  1  0
 13 40  1  0
 13 41  1  0
 14 42  1  0
 15 43  1  0
 15 44  1  0
 15 45  1  0
 18 46  1  0
 18 47  1  0
 20 48  1  0
 20 49  1  0
 20 50  1  0
 21 51  1  0
 23 52  1  0
 26 53  1  0
 26 54  1  0
 26 55  1  0
M  END
> <Name>
RB1999_3RRR

> <Clean Energy>
236.6

$$$$
RB1999_3RSR
  SciTegic12132405553D

 55 58  0  0  0  0            999 V2000
   -6.5005    2.0990    0.4806 C   0  0
   -7.9296    1.2518    0.6835 C   0  0
   -7.8803   -0.3469    0.1772 C   0  0
   -6.5900   -0.8598    0.5555 C   0  0  2  0  0  0
   -5.5476    0.0306   -0.4833 C   0  0  1  0  0  0
   -5.9330    1.6468   -0.8075 C   0  0  2  0  0  0
   -4.5874    2.3103   -1.4086 C   0  0  2  0  0  0
   -4.1524   -0.1609    0.2682 C   0  0
   -3.0088    0.5219   -0.4761 C   0  0
   -3.2631    2.0311   -0.5652 C   0  0  1  0  0  0
   -3.3861    4.5526   -1.9604 C   0  0
   -4.7355    3.9020   -1.5495 C   0  0
   -2.0434    2.5786   -1.3510 C   0  0
   -2.1035    3.9987   -1.1134 C   0  0  2  0  0  0
   -7.0255    1.9401   -1.9873 C   0  0
   -6.3871   -2.3082    0.2385 C   0  0
   -8.7240   -0.8908    0.6219 H   0  0
   -3.2212    2.9261    0.8231 C   0  0
   -2.0284    3.8650    0.5878 C   0  0  1  0  0  0
   -6.4608   -0.7651    2.1707 C   0  0
   -6.1859   -2.7065   -1.0762 O   0  0
   -6.3985   -3.1485    1.1443 O   0  0
   -0.7665    3.2457    1.0645 O   0  0
   -5.4890   -0.3882   -1.4958 H   0  0
   -4.3965    1.8358   -2.3800 H   0  0
   -2.1389    5.1905    1.3454 C   0  0
   -6.7185    3.1737    0.5236 H   0  0
   -5.7729    1.8492    1.2527 H   0  0
   -8.1656    1.3369    1.7531 H   0  0
   -8.7552    1.7051    0.1180 H   0  0
   -7.9254   -0.4354   -0.9138 H   0  0
   -3.9336   -1.2316    0.3548 H   0  0
   -4.2004    0.2805    1.2667 H   0  0
   -2.0608    0.3495    0.0507 H   0  0
   -2.9485    0.1030   -1.4892 H   0  0
   -3.1750    4.3198   -3.0128 H   0  0
   -3.4951    5.6390   -1.8430 H   0  0
   -4.9768    4.3010   -0.5736 H   0  0
   -5.5394    4.2002   -2.2300 H   0  0
   -2.0156    2.2469   -2.3972 H   0  0
   -1.1496    2.2535   -0.8729 H   0  0
   -1.2251    4.5349   -1.4958 H   0  0
   -7.1936    3.0160   -2.0861 H   0  0
   -7.9862    1.4676   -1.8279 H   0  0
   -6.6171    1.5519   -2.9300 H   0  0
   -3.5658    2.5122    1.7801 H   0  0
   -3.8659    3.6947    0.6583 H   0  0
   -5.4804   -1.1534    2.4753 H   0  0
   -7.2437   -1.3894    2.6220 H   0  0
   -6.5523    0.2466    2.5582 H   0  0
   -6.0697   -3.6873   -1.1080 H   0  0
   -0.6144    2.3248    0.7817 H   0  0
   -1.2793    5.8271    1.0946 H   0  0
   -2.1490    4.9932    2.4260 H   0  0
   -3.0702    5.6982    1.0551 H   0  0
  1  2  1  0
  2  3  1  0
  3  4  1  0
  4  5  1  0
  5  6  1  0
  1  6  1  0
  8  9  1  0
  9 10  1  0
  7 10  1  0
  5  8  1  0
  7  6  1  0
 11 12  1  0
 13 14  1  0
 11 14  1  0
 12  7  1  0
 10 13  1  0
  6 15  1  0
  4 16  1  0
  3 17  1  0
 10 18  1  0
  4 20  1  0
 16 21  1  0
 16 22  2  0
 14 19  1  0
 19 18  1  0
  5 24  1  0
  7 25  1  0
 19 23  1  0
 19 26  1  0
  1 27  1  0
  1 28  1  0
  2 29  1  0
  2 30  1  0
  3 31  1  0
  8 32  1  0
  8 33  1  0
  9 34  1  0
  9 35  1  0
 11 36  1  0
 11 37  1  0
 12 38  1  0
 12 39  1  0
 13 40  1  0
 13 41  1  0
 14 42  1  0
 15 43  1  0
 15 44  1  0
 15 45  1  0
 18 46  1  0
 18 47  1  0
 20 48  1  0
 20 49  1  0
 20 50  1  0
 21 51  1  0
 23 52  1  0
 26 53  1  0
 26 54  1  0
 26 55  1  0
M  END
> <Name>
RB1999_3RSR

> <Clean Energy>
207.449

$$$$
RB1999_3RRS
  SciTegic12132405553D

 55 58  0  0  0  0            999 V2000
   -4.8581    1.6828    2.0550 C   0  0
   -6.4248    1.1535    2.3347 C   0  0
   -7.0927    0.2340    1.1016 C   0  0
   -6.0468   -0.6284    0.6276 C   0  0  2  0  0  0
   -4.9731    0.5116   -0.1079 C   0  0  1  0  0  0
   -4.7906    2.0328    0.6189 C   0  0  2  0  0  0
   -3.4488    2.7594    0.0411 C   0  0  1  0  0  0
   -3.6378   -0.3476   -0.1186 C   0  0
   -2.4971    0.3816   -0.7738 C   0  0
   -2.1162    1.7381   -0.0462 C   0  0  1  0  0  0
   -1.9915    4.1388   -1.0036 C   0  0
   -3.3467    3.2544   -1.2759 C   0  0
   -0.6957    2.2884   -0.8484 C   0  0
   -0.6818    3.4848   -0.1702 C   0  0  2  0  0  0
   -5.9190    3.1884    0.3489 C   0  0
   -6.4655   -1.6077   -0.4494 C   0  0
   -7.9688   -0.3022    1.4889 H   0  0
   -1.5191    1.6016    1.2352 C   0  0
   -0.8694    3.0148    1.3876 C   0  0  2  0  0  0
   -5.5556   -1.5698    1.8611 C   0  0
   -7.0196   -1.1720   -1.6657 O   0  0
   -6.3251   -2.8195   -0.2517 O   0  0
   -1.6082    4.0703    2.0099 O   0  0
   -5.2740    0.7803   -1.1284 H   0  0
   -3.3233    3.6758    0.6239 H   0  0
    0.3849    2.7136    2.2148 C   0  0
   -4.6504    2.5258    2.7263 H   0  0
   -4.1250    0.8973    2.2312 H   0  0
   -6.3799    0.6015    3.2834 H   0  0
   -7.1189    1.9943    2.4688 H   0  0
   -7.3903    0.8456    0.2421 H   0  0
   -3.8142   -1.2811   -0.6655 H   0  0
   -3.3310   -0.5796    0.9035 H   0  0
   -1.6112   -0.2661   -0.7787 H   0  0
   -2.7903    0.5898   -1.8080 H   0  0
   -1.6577    4.4447   -2.0039 H   0  0
   -2.2649    5.0371   -0.4324 H   0  0
   -4.1351    3.9542   -1.5729 H   0  0
   -3.2778    2.4624   -2.0107 H   0  0
   -0.7737    2.4679   -1.9314 H   0  0
    0.1329    1.5988   -0.6406 H   0  0
    0.1136    4.2336   -0.2793 H   0  0
   -5.6414    4.0854    0.9190 H   0  0
   -6.9263    2.9049    0.6222 H   0  0
   -5.9409    3.4340   -0.7162 H   0  0
   -2.0398    1.1935    2.1076 H   0  0
   -0.7061    0.9173    0.9662 H   0  0
   -4.7525   -2.2320    1.5128 H   0  0
   -6.4033   -2.1871    2.1877 H   0  0
   -5.1782   -1.0126    2.7150 H   0  0
   -7.0890   -0.1886   -1.6961 H   0  0
   -1.0646    4.8950    2.0065 H   0  0
    0.0871    2.3639    3.2127 H   0  0
    0.9865    3.6281    2.3090 H   0  0
    0.9771    1.9344    1.7142 H   0  0
  1  2  1  0
  2  3  1  0
  3  4  1  0
  4  5  1  0
  5  6  1  0
  1  6  1  0
  8  9  1  0
  9 10  1  0
  7 10  1  0
  5  8  1  0
  7  6  1  0
 11 12  1  0
 13 14  1  0
 11 14  1  0
 12  7  1  0
 10 13  1  0
  6 15  1  0
  4 16  1  0
  3 17  1  0
 10 18  1  0
  4 20  1  0
 16 21  1  0
 16 22  2  0
 14 19  1  0
 19 18  1  0
  5 24  1  0
  7 25  1  0
 19 23  1  0
 19 26  1  0
  1 27  1  0
  1 28  1  0
  2 29  1  0
  2 30  1  0
  3 31  1  0
  8 32  1  0
  8 33  1  0
  9 34  1  0
  9 35  1  0
 11 36  1  0
 11 37  1  0
 12 38  1  0
 12 39  1  0
 13 40  1  0
 13 41  1  0
 14 42  1  0
 15 43  1  0
 15 44  1  0
 15 45  1  0
 18 46  1  0
 18 47  1  0
 20 48  1  0
 20 49  1  0
 20 50  1  0
 21 51  1  0
 23 52  1  0
 26 53  1  0
 26 54  1  0
 26 55  1  0
M  END
> <Name>
RB1999_3RRS

> <Clean Energy>
230.643

$$$$
RB1999_3SSS
  SciTegic12132405553D

 55 58  0  0  0  0            999 V2000
   -5.3345    2.1002    1.6744 C   0  0
   -6.4560    1.4468    2.7145 C   0  0
   -7.3351    0.6397    1.9195 C   0  0
   -6.4154   -0.6531    1.4231 C   0  0  2  0  0  0
   -4.8204   -0.2045    1.1311 C   0  0  2  0  0  0
   -4.8040    1.1517    0.3882 C   0  0  2  0  0  0
   -3.3030    1.5279   -0.3109 C   0  0  2  0  0  0
   -3.9897   -1.1415    0.4183 C   0  0
   -2.4656   -0.5904    0.4855 C   0  0
   -2.2124    1.0151    0.5359 C   0  0  1  0  0  0
   -1.7936    3.3741   -0.8907 C   0  0
   -3.2118    2.9851   -0.5234 C   0  0
   -0.7059    1.3187    0.0677 C   0  0
   -0.6989    2.8326    0.1866 C   0  0  2  0  0  0
   -5.7305    1.2724   -0.9222 C   0  0
   -7.1303   -1.3979    0.2439 C   0  0
   -8.2503    0.2715    2.4015 H   0  0
   -1.9847    1.6601    1.9311 C   0  0
   -1.1934    3.0634    1.6878 C   0  0  2  0  0  0
   -6.2200   -1.7435    2.5167 C   0  0
   -8.2168   -0.8756   -0.5161 O   0  0
   -6.7296   -2.5304   -0.0470 O   0  0
   -1.8675    4.3272    1.7037 O   0  0
   -4.3113   -0.0237    2.0884 H   0  0
   -3.1457    0.9610   -1.2400 H   0  0
   -0.1635    3.0359    2.8259 C   0  0
   -5.6221    3.0711    1.2508 H   0  0
   -4.5336    2.2609    2.3811 H   0  0
   -5.9897    0.7769    3.4439 H   0  0
   -6.9530    2.2673    3.2487 H   0  0
   -7.6034    1.3017    1.0937 H   0  0
   -4.3788   -1.1525   -0.6073 H   0  0
   -3.9885   -2.1632    0.8172 H   0  0
   -1.8537   -1.0367    1.2798 H   0  0
   -2.1054   -0.9676   -0.4803 H   0  0
   -1.5093    3.0117   -1.8880 H   0  0
   -1.7884    4.4722   -0.8869 H   0  0
   -3.4279    3.4813    0.4098 H   0  0
   -3.9367    3.3370   -1.2646 H   0  0
   -0.5009    0.9803   -0.9563 H   0  0
    0.0141    0.8610    0.7584 H   0  0
    0.2306    3.3566   -0.0721 H   0  0
   -5.6832    2.2881   -1.3231 H   0  0
   -6.7641    1.0536   -0.7043 H   0  0
   -5.3677    0.5677   -1.6824 H   0  0
   -2.7199    1.6327    2.7390 H   0  0
   -1.1767    0.9783    2.2118 H   0  0
   -5.6152   -2.5698    2.1253 H   0  0
   -7.2032   -2.1290    2.8178 H   0  0
   -5.7157   -1.3062    3.3887 H   0  0
   -8.4868    0.0190   -0.2493 H   0  0
   -1.2167    5.0486    1.5176 H   0  0
   -0.6838    3.1256    3.7891 H   0  0
    0.5337    3.8762    2.7043 H   0  0
    0.3955    2.0901    2.7976 H   0  0
  1  2  1  0
  2  3  1  0
  3  4  1  0
  4  5  1  0
  5  6  1  0
  1  6  1  0
  8  9  1  0
  9 10  1  0
  7 10  1  0
  5  8  1  0
  7  6  1  0
 11 12  1  0
 13 14  1  0
 11 14  1  0
 12  7  1  0
 10 13  1  0
  6 15  1  0
  4 16  1  0
  3 17  1  0
 10 18  1  0
  4 20  1  0
 16 21  1  0
 16 22  2  0
 14 19  1  0
 19 18  1  0
  5 24  1  0
  7 25  1  0
 19 23  1  0
 19 26  1  0
  1 27  1  0
  1 28  1  0
  2 29  1  0
  2 30  1  0
  3 31  1  0
  8 32  1  0
  8 33  1  0
  9 34  1  0
  9 35  1  0
 11 36  1  0
 11 37  1  0
 12 38  1  0
 12 39  1  0
 13 40  1  0
 13 41  1  0
 14 42  1  0
 15 43  1  0
 15 44  1  0
 15 45  1  0
 18 46  1  0
 18 47  1  0
 20 48  1  0
 20 49  1  0
 20 50  1  0
 21 51  1  0
 23 52  1  0
 26 53  1  0
 26 54  1  0
 26 55  1  0
M  END
> <Name>
RB1999_3SSS

> <Clean Energy>
249.965

$$$$
RB1999_3SRR
  SciTegic12132405553D

 55 58  0  0  0  0            999 V2000
   -6.0856    1.8751   -0.4020 C   0  0
   -6.7504    2.0664    0.8313 C   0  0
   -7.1706    0.5691    1.3436 C   0  0
   -6.1312   -0.6671    1.0453 C   0  0  2  0  0  0
   -4.8211    0.0253    1.2401 C   0  0  2  0  0  0
   -4.6380    1.1646   -0.0333 C   0  0  2  0  0  0
   -3.4704    2.1562    0.6374 C   0  0  1  0  0  0
   -3.5142   -0.8045    1.4024 C   0  0
   -2.4242    0.1609    1.9772 C   0  0
   -1.9777    1.3615    1.1284 C   0  0  1  0  0  0
   -2.2700    4.0300    0.2524 C   0  0
   -3.2906    3.4213   -0.3950 C   0  0
   -1.3021    1.2997   -0.0826 C   0  0
   -1.0662    3.0178   -0.1151 C   0  0  2  0  0  0
   -4.2754    0.6506   -1.5188 C   0  0
   -6.2342   -1.4301   -0.2912 C   0  0
   -7.2054    0.7500    2.4261 H   0  0
   -0.9115    2.2614    2.0266 C   0  0
   -0.1189    3.0648    0.9441 C   0  0  1  0  0  0
   -6.4713   -1.7494    2.0766 C   0  0
   -7.3679   -1.3511   -1.1226 O   0  0
   -5.3078   -2.1726   -0.6357 O   0  0
    0.9133    2.2224    0.4417 O   0  0
   -4.9877    0.5225    2.2076 H   0  0
   -3.8940    2.5064    1.5880 H   0  0
    0.5649    4.3576    1.4261 C   0  0
   -6.7461    1.1950   -0.9563 H   0  0
   -5.9119    2.7735   -1.0035 H   0  0
   -6.0290    2.5470    1.5009 H   0  0
   -7.6586    2.6804    0.7722 H   0  0
   -8.1623    0.2382    1.0122 H   0  0
   -3.2239   -1.2996    0.4664 H   0  0
   -3.6742   -1.5601    2.1803 H   0  0
   -2.8610    0.5634    2.9010 H   0  0
   -1.5242   -0.4162    2.2262 H   0  0
   -1.9917    5.0466   -0.0555 H   0  0
   -2.6046    4.0453    1.2991 H   0  0
   -4.2227    3.9972   -0.4288 H   0  0
   -2.9635    3.1592   -1.4112 H   0  0
   -1.8996    0.9040   -0.8172 H   0  0
   -0.3579    0.7595   -0.0837 H   0  0
   -0.6472    3.3068   -1.0873 H   0  0
   -4.1724    1.5103   -2.1901 H   0  0
   -5.0644    0.0176   -1.9046 H   0  0
   -3.3538    0.0814   -1.5151 H   0  0
   -1.5752    2.7990    2.7193 H   0  0
   -0.1104    1.7440    2.5698 H   0  0
   -5.7540   -2.5775    1.9943 H   0  0
   -7.4862   -2.1241    1.8865 H   0  0
   -6.4210   -1.3171    3.0856 H   0  0
   -8.0497   -0.7567   -0.7530 H   0  0
    1.5751    2.0543    1.1563 H   0  0
    1.0990    4.8212    0.5853 H   0  0
    1.2789    4.1118    2.2241 H   0  0
   -0.1861    5.0586    1.8149 H   0  0
  1  2  1  0
  2  3  1  0
  3  4  1  0
  4  5  1  0
  5  6  1  0
  1  6  1  0
  8  9  1  0
  9 10  1  0
  7 10  1  0
  5  8  1  0
  7  6  1  0
 11 12  1  0
 13 14  1  0
 11 14  1  0
 12  7  1  0
 10 13  1  0
  6 15  1  0
  4 16  1  0
  3 17  1  0
 10 18  1  0
  4 20  1  0
 16 21  1  0
 16 22  2  0
 14 19  1  0
 19 18  1  0
  5 24  1  0
  7 25  1  0
 19 23  1  0
 19 26  1  0
  1 27  1  0
  1 28  1  0
  2 29  1  0
  2 30  1  0
  3 31  1  0
  8 32  1  0
  8 33  1  0
  9 34  1  0
  9 35  1  0
 11 36  1  0
 11 37  1  0
 12 38  1  0
 12 39  1  0
 13 40  1  0
 13 41  1  0
 14 42  1  0
 15 43  1  0
 15 44  1  0
 15 45  1  0
 18 46  1  0
 18 47  1  0
 20 48  1  0
 20 49  1  0
 20 50  1  0
 21 51  1  0
 23 52  1  0
 26 53  1  0
 26 54  1  0
 26 55  1  0
M  END
> <Name>
RB1999_3SRR

> <Clean Energy>
231.65

$$$$
RB1999_3SRS
  SciTegic12132405553D

 55 58  0  0  0  0            999 V2000
   -6.0419    1.9219   -0.3761 C   0  0
   -6.6878    2.1291    0.8646 C   0  0
   -7.1622    0.6453    1.3690 C   0  0
   -6.1749   -0.6284    1.0519 C   0  0  2  0  0  0
   -4.8371    0.0105    1.2399 C   0  0  2  0  0  0
   -4.6205    1.1516   -0.0263 C   0  0  2  0  0  0
   -3.4077    2.0908    0.6435 C   0  0  1  0  0  0
   -3.5618   -0.8702    1.3843 C   0  0
   -2.4313    0.0487    1.9589 C   0  0
   -1.9429    1.2396    1.1179 C   0  0  1  0  0  0
   -2.1406    3.9044    0.2688 C   0  0
   -3.1857    3.3503   -0.3778 C   0  0
   -1.2884    1.1478   -0.1046 C   0  0
   -0.9640    2.8608   -0.1188 C   0  0  2  0  0  0
   -4.2945    0.6360   -1.5205 C   0  0
   -6.3198   -1.3764   -0.2890 C   0  0
   -7.1804    0.8187    2.4531 H   0  0
   -0.8293    2.1160    2.0526 C   0  0
   -0.0312    2.9606    0.9883 C   0  0  2  0  0  0
   -6.5481   -1.7045    2.0782 C   0  0
   -7.4570   -1.2470   -1.1092 O   0  0
   -5.4261   -2.1517   -0.6476 O   0  0
    0.4486    4.2348    1.4107 O   0  0
   -4.9755    0.5061    2.2126 H   0  0
   -3.8109    2.4487    1.6001 H   0  0
    1.3323    2.2197    0.6061 C   0  0
   -6.7336    1.2730   -0.9297 H   0  0
   -5.8379    2.8178   -0.9721 H   0  0
   -5.9421    2.5754    1.5314 H   0  0
   -7.5715    2.7789    0.8186 H   0  0
   -8.1691    0.3563    1.0442 H   0  0
   -3.2981   -1.3685    0.4422 H   0  0
   -3.7446   -1.6254    2.1576 H   0  0
   -2.8469    0.4598    2.8887 H   0  0
   -1.5526   -0.5644    2.1975 H   0  0
   -1.8263    4.9137   -0.0270 H   0  0
   -2.4690    3.9228    1.3164 H   0  0
   -4.0940    3.9638   -0.3985 H   0  0
   -2.8759    3.0860   -1.3987 H   0  0
   -1.9094    0.7903   -0.8367 H   0  0
   -0.3978    0.5548   -0.1179 H   0  0
   -0.5433    3.1652   -1.0856 H   0  0
   -4.1636    1.4968   -2.1857 H   0  0
   -5.1126    0.0391   -1.9031 H   0  0
   -3.3969    0.0297   -1.5318 H   0  0
   -1.5170    2.6373    2.7347 H   0  0
   -0.0395    1.5905    2.6053 H   0  0
   -5.8646   -2.5594    1.9831 H   0  0
   -7.5786   -2.0377    1.8946 H   0  0
   -6.4719   -1.2825    3.0898 H   0  0
   -8.1117   -0.6294   -0.7287 H   0  0
    0.9284    4.6684    0.6624 H   0  0
    1.9819    2.2253    1.4916 H   0  0
    1.8207    2.7825   -0.2009 H   0  0
    1.2200    1.1964    0.2904 H   0  0
  1  2  1  0
  2  3  1  0
  3  4  1  0
  4  5  1  0
  5  6  1  0
  1  6  1  0
  8  9  1  0
  9 10  1  0
  7 10  1  0
  5  8  1  0
  7  6  1  0
 11 12  1  0
 13 14  1  0
 11 14  1  0
 12  7  1  0
 10 13  1  0
  6 15  1  0
  4 16  1  0
  3 17  1  0
 10 18  1  0
  4 20  1  0
 16 21  1  0
 16 22  2  0
 14 19  1  0
 19 18  1  0
  5 24  1  0
  7 25  1  0
 19 23  1  0
 19 26  1  0
  1 27  1  0
  1 28  1  0
  2 29  1  0
  2 30  1  0
  3 31  1  0
  8 32  1  0
  8 33  1  0
  9 34  1  0
  9 35  1  0
 11 36  1  0
 11 37  1  0
 12 38  1  0
 12 39  1  0
 13 40  1  0
 13 41  1  0
 14 42  1  0
 15 43  1  0
 15 44  1  0
 15 45  1  0
 18 46  1  0
 18 47  1  0
 20 48  1  0
 20 49  1  0
 20 50  1  0
 21 51  1  0
 23 52  1  0
 26 53  1  0
 26 54  1  0
 26 55  1  0
M  END
> <Name>
RB1999_3SRS

> <Clean Energy>
245.81

$$$$
RB1999_3SSR
  SciTegic12132405553D

 55 58  0  0  0  0            999 V2000
   -5.4087    2.1096    1.5801 C   0  0
   -6.5263    1.4726    2.6339 C   0  0
   -7.3790    0.6160    1.8627 C   0  0
   -6.4263   -0.6745    1.4264 C   0  0  2  0  0  0
   -4.8383   -0.2023    1.1322 C   0  0  2  0  0  0
   -4.8437    1.1237    0.3363 C   0  0  2  0  0  0
   -3.3432    1.5065   -0.3626 C   0  0  2  0  0  0
   -3.9809   -1.1481    0.4651 C   0  0
   -2.4707   -0.5611    0.5237 C   0  0
   -2.2515    1.0511    0.5194 C   0  0  1  0  0  0
   -1.8681    3.3740   -0.9900 C   0  0
   -3.2840    2.9529   -0.6302 C   0  0
   -0.7617    1.3649    0.0435 C   0  0
   -0.7716    2.8788    0.1162 C   0  0  2  0  0  0
   -5.7591    1.1720   -0.9867 C   0  0
   -7.1126   -1.4807    0.2707 C   0  0
   -8.2910    0.2467    2.3499 H   0  0
   -2.0599    1.7594    1.9084 C   0  0
   -1.1946    3.1113    1.6642 C   0  0  1  0  0  0
   -6.2187   -1.7167    2.5640 C   0  0
   -8.2022   -1.0127   -0.5196 O   0  0
   -6.6843   -2.6145    0.0286 O   0  0
   -0.1257    2.9109    2.5835 O   0  0
   -4.3435    0.0271    2.0863 H   0  0
   -3.1615    0.9074   -1.2667 H   0  0
   -1.7332    4.5645    1.9303 C   0  0
   -5.7128    3.0568    1.1163 H   0  0
   -4.6189    2.3153    2.2878 H   0  0
   -6.0532    0.8423    3.3935 H   0  0
   -7.0465    2.3022    3.1307 H   0  0
   -7.6530    1.2392    1.0089 H   0  0
   -4.3596   -1.2078   -0.5626 H   0  0
   -3.9613   -2.1531    0.9039 H   0  0
   -1.8553   -0.9668    1.3369 H   0  0
   -2.0952   -0.9634   -0.4260 H   0  0
   -1.5642    2.9842   -1.9710 H   0  0
   -1.8864    4.4714   -1.0254 H   0  0
   -3.5212    3.4616    0.2792 H   0  0
   -4.0093    3.2632   -1.3893 H   0  0
   -0.5558    0.9937   -0.9691 H   0  0
   -0.0312    0.9453    0.7476 H   0  0
    0.1662    3.3817   -0.1538 H   0  0
   -5.7303    2.1720   -1.4269 H   0  0
   -6.7897    0.9385   -0.7703 H   0  0
   -5.3728    0.4464   -1.7151 H   0  0
   -2.7797    1.7386    2.7325 H   0  0
   -1.2569    1.0717    2.1935 H   0  0
   -5.5921   -2.5441    2.2114 H   0  0
   -7.1964   -2.1117    2.8706 H   0  0
   -5.7333   -1.2345    3.4229 H   0  0
   -8.4943   -0.1146   -0.2909 H   0  0
   -0.4747    2.9666    3.5063 H   0  0
   -0.9370    5.2884    1.7096 H   0  0
   -2.0202    4.6490    2.9872 H   0  0
   -2.5995    4.7884    1.3130 H   0  0
  1  2  1  0
  2  3  1  0
  3  4  1  0
  4  5  1  0
  5  6  1  0
  1  6  1  0
  8  9  1  0
  9 10  1  0
  7 10  1  0
  5  8  1  0
  7  6  1  0
 11 12  1  0
 13 14  1  0
 11 14  1  0
 12  7  1  0
 10 13  1  0
  6 15  1  0
  4 16  1  0
  3 17  1  0
 10 18  1  0
  4 20  1  0
 16 21  1  0
 16 22  2  0
 14 19  1  0
 19 18  1  0
  5 24  1  0
  7 25  1  0
 19 23  1  0
 19 26  1  0
  1 27  1  0
  1 28  1  0
  2 29  1  0
  2 30  1  0
  3 31  1  0
  8 32  1  0
  8 33  1  0
  9 34  1  0
  9 35  1  0
 11 36  1  0
 11 37  1  0
 12 38  1  0
 12 39  1  0
 13 40  1  0
 13 41  1  0
 14 42  1  0
 15 43  1  0
 15 44  1  0
 15 45  1  0
 18 46  1  0
 18 47  1  0
 20 48  1  0
 20 49  1  0
 20 50  1  0
 21 51  1  0
 23 52  1  0
 26 53  1  0
 26 54  1  0
 26 55  1  0
M  END
> <Name>
RB1999_3SSR

> <Clean Energy>
257.187

$$$$
RAS2013_1
  SciTegic12132405553D

 26 28  0  0  0  0            999 V2000
    1.9311   -1.8665   -0.3374 C   0  0
    0.8069   -2.4254    0.1047 C   0  0
    0.8092   -3.8178    0.5478 C   0  0
    1.9350   -4.5268    0.5096 C   0  0
    3.1735   -3.9173    0.0251 C   0  0
    3.1706   -2.6438   -0.3807 C   0  0
    4.4315   -4.7528   -0.0052 C   0  0  1  0  0  0
    5.0228   -4.3541   -1.2795 O   0  0
    5.8349   -4.1799   -0.1307 C   0  0  2  0  0  0
    4.3412   -5.8439    0.0928 H   0  0
    5.9449   -3.2015    0.3581 H   0  0
    6.9151   -5.2011    0.0038 C   0  0
    8.0392   -4.8872    0.6480 C   0  0
    6.7370   -6.4474   -0.5346 O   0  0
    7.7041   -7.3984   -0.4258 C   0  0
    8.9430   -7.0880    0.2708 C   0  0
    9.1051   -5.8761    0.7891 C   0  0
    7.5309   -8.5195   -0.9160 O   0  0
    1.9288   -0.8560   -0.6591 H   0  0
   -0.0900   -1.8604    0.1351 H   0  0
   -0.0863   -4.2636    0.8997 H   0  0
    1.9352   -5.5372    0.8313 H   0  0
    4.0572   -2.1878   -0.7357 H   0  0
    8.1588   -3.9170    1.0589 H   0  0
    9.7058   -7.8191    0.3633 H   0  0
   10.0003   -5.6284    1.3011 H   0  0
  1  2  2  0
  1  6  1  0
  2  3  1  0
  3  4  2  0
  4  5  1  0
  5  6  2  0
  7  5  1  0
  7  8  1  0
  9  7  1  0
  9  8  1  0
  7 10  1  0
  9 11  1  0
  9 12  1  0
 14 15  1  0
 15 16  1  0
 16 17  2  0
 13 17  1  0
 13 12  2  0
 12 14  1  0
 15 18  2  0
  1 19  1  0
  2 20  1  0
  3 21  1  0
  4 22  1  0
  6 23  1  0
 13 24  1  0
 16 25  1  0
 17 26  1  0
M  END
> <Name>
RAS2013_1

> <Clean Energy>
44.5886993408203

$$$$
RAS2013_2
  SciTegic12132405553D

 37 38  0  0  0  0            999 V2000
    3.1062   -3.6174   -0.5041 C   0  0
    2.1148   -4.3322    0.0414 C   0  0
    2.3519   -5.7134    0.4015 C   0  0
    3.5232   -6.3188    0.2166 C   0  0
    4.6958   -5.4887   -0.4257 C   0  0
    4.4131   -4.2105   -0.7493 C   0  0
    0.7942   -3.8201    0.3090 O   0  0
    0.5432   -2.4456   -0.0423 C   0  0
    3.5007   -7.6973    0.7161 O   0  0
    4.6393   -8.5488    0.6912 C   0  0
    5.3454   -3.4068   -1.3824 O   0  0
    6.1031   -6.0581   -0.7677 C   0  0
    6.1887   -7.2128   -1.1843 O   0  0
    7.4224   -5.3247   -0.6445 C   0  0
    7.5742   -4.1654    0.0105 C   0  0
    8.8867   -3.4927    0.1298 C   0  0
   10.2248   -1.6420    0.9458 C   0  0
    8.9497   -2.3448    0.8010 C   0  0
   10.1167   -4.0512   -0.4687 C   0  0
   11.2742   -3.4074   -0.3338 C   0  0
   11.3311   -2.1478    0.4057 C   0  0
    2.9686   -2.6083   -0.7818 H   0  0
    1.5620   -6.2640    0.8450 H   0  0
   -0.4944   -2.1883    0.2136 H   0  0
    0.6975   -2.3065   -1.1228 H   0  0
    1.2294   -1.7907    0.5152 H   0  0
    4.3821   -9.5102    1.1578 H   0  0
    5.4637   -8.0803    1.2480 H   0  0
    4.9418   -8.7256   -0.3449 H   0  0
    4.9524   -2.5164   -1.5517 H   0  0
    8.2729   -5.7844   -1.0669 H   0  0
    6.7362   -3.7118    0.4646 H   0  0
   10.2676   -0.7280    1.4819 H   0  0
    8.0703   -1.9385    1.2325 H   0  0
   10.0864   -4.9623   -1.0061 H   0  0
   12.1563   -3.8092   -0.7638 H   0  0
   12.2543   -1.6367    0.5119 H   0  0
  1  2  2  0
  1  6  1  0
  2  3  1  0
  3  4  2  0
  4  5  1  0
  5  6  2  0
  2  7  1  0
  8  7  1  0
  4  9  1  0
  9 10  1  0
  6 11  1  0
  5 12  1  0
 13 12  2  0
 14 12  1  0
 14 15  2  0
 15 16  1  0
 17 18  1  0
 19 20  2  0
 20 21  1  0
 17 21  2  0
 18 16  2  0
 16 19  1  0
  1 22  1  0
  3 23  1  0
  8 24  1  0
  8 25  1  0
  8 26  1  0
 10 27  1  0
 10 28  1  0
 10 29  1  0
 11 30  1  0
 14 31  1  0
 15 32  1  0
 17 33  1  0
 18 34  1  0
 19 35  1  0
 20 36  1  0
 21 37  1  0
M  END
> <Name>
RAS2013_2

> <Clean Energy>
28.728

$$$$
RAS2013_3
  SciTegic12132405553D

 80 83  0  0  0  0            999 V2000
   -3.9743   -0.0094   -0.0184 C   0  0
   -5.0557   -0.7628    0.8126 C   0  0
   -4.9704   -2.2732    0.4407 C   0  0  1  0  0  0
   -3.5769   -2.8485    0.8201 C   0  0
   -2.4908   -2.0447    0.1392 C   0  0
   -2.5316   -0.5358    0.2672 C   0  0  1  0  0  0
   -5.9746   -2.9997    1.1437 O   0  0
   -1.4940   -2.6947   -0.4756 C   0  0
   -0.4254   -1.9800   -1.2758 C   0  0
   -0.0570   -0.5131   -0.8978 C   0  0  1  0  0  0
   -1.4805    0.1739   -0.7900 C   0  0  2  0  0  0
   -0.0343    2.2498   -0.8649 C   0  0
   -1.3955    1.7517   -0.4108 C   0  0
    0.8128   -0.1357    0.2128 C   0  0  2  0  0  0
    1.0874    1.4167    0.1275 C   0  0  1  0  0  0
    2.2122   -0.7487   -0.0193 C   0  0
    3.1767    0.2041    0.6576 C   0  0
    2.6847    1.4961   -0.2343 C   0  0  2  0  0  0
    3.4565    2.9524   -0.0263 C   0  0  1  0  0  0
    4.9944    3.0016   -0.4263 C   0  0
    5.9714    2.1018    0.4002 C   0  0
    7.5010    2.2234   -0.0441 C   0  0  1  0  0  0
    7.9193    3.7850    0.1530 C   0  0
    8.3487    1.1247    0.8484 C   0  0
    9.8564    1.0042    0.5145 C   0  0
    7.8350   -0.3233    0.5903 C   0  0
    9.3382    4.2298   -0.2898 C   0  0
    2.8750    4.0417   -0.9473 C   0  0
    0.9690    1.9478    1.6537 C   0  0
   -2.2049   -0.2705    1.8224 C   0  0
   -4.2019   -0.2020   -1.0757 H   0  0
   -4.0254    1.0690    0.1738 H   0  0
   -4.8962   -0.6328    1.8888 H   0  0
   -6.0479   -0.3754    0.5454 H   0  0
   -5.1280   -2.3786   -0.6418 H   0  0
   -3.4776   -2.7308    1.9063 H   0  0
   -3.4971   -3.9109    0.5541 H   0  0
   -5.8282   -2.8988    2.1168 H   0  0
   -1.5163   -3.7534   -0.4921 H   0  0
    0.4655   -2.6075   -1.4104 H   0  0
   -0.9087   -1.8834   -2.2574 H   0  0
    0.5184   -0.1214   -1.7492 H   0  0
   -1.8367    0.0059   -1.8146 H   0  0
    0.0711    1.9797   -1.9271 H   0  0
    0.0993    3.3265   -0.7492 H   0  0
   -1.3488    1.8993    0.6354 H   0  0
   -2.2832    2.2765   -0.7873 H   0  0
    0.4047   -0.3699    1.1807 H   0  0
    2.4717   -0.6312   -1.0776 H   0  0
    2.2576   -1.8139    0.2442 H   0  0
    3.0096    0.3006    1.7278 H   0  0
    4.2109   -0.0735    0.4692 H   0  0
    2.8170    1.1952   -1.2805 H   0  0
    3.3553    3.2676    1.0195 H   0  0
    5.0834    2.7377   -1.4887 H   0  0
    5.3033    4.0395   -0.2880 H   0  0
    5.8916    2.3667    1.4629 H   0  0
    5.6604    1.0937    0.2592 H   0  0
    7.5922    1.9596   -1.1065 H   0  0
    7.7867    4.0443    1.2124 H   0  0
    7.2427    4.3975   -0.4450 H   0  0
    8.2301    1.3712    1.9125 H   0  0
   10.3008    0.2302    1.1556 H   0  0
   10.3683    1.9355    0.6960 H   0  0
    9.9732    0.7157   -0.5393 H   0  0
    8.4119   -1.0220    1.2120 H   0  0
    7.9804   -0.5737   -0.4697 H   0  0
    6.7747   -0.4186    0.8452 H   0  0
    9.4380    5.3123   -0.1285 H   0  0
    9.4744    4.0064   -1.3572 H   0  0
   10.0985    3.7238    0.2902 H   0  0
    3.4074    4.9852   -0.7648 H   0  0
    1.8241    4.1904   -0.7410 H   0  0
    3.0102    3.7421   -1.9956 H   0  0
    1.2134    3.0167    1.6829 H   0  0
    1.6301    1.4200    2.3317 H   0  0
   -0.0506    1.8112    2.0163 H   0  0
   -1.2200   -0.6577    2.0632 H   0  0
   -2.9296   -0.7664    2.4703 H   0  0
   -2.2336    0.8027    2.0340 H   0  0
  1  2  1  0
  1  6  1  0
  2  3  1  0
  3  4  1  0
  4  5  1  0
  5  6  1  0
  8  9  1  0
  9 10  1  0
 10 11  1  0
  5  8  2  0
  6 11  1  0
 12 13  1  0
 14 15  1  0
 12 15  1  0
 13 11  1  0
 10 14  1  0
 16 17  1  0
 17 18  1  0
 14 16  1  0
 15 18  1  0
 18 19  1  0
 19 20  1  0
 20 21  1  0
 21 22  1  0
 22 24  1  0
 24 25  1  0
 24 26  1  0
 23 27  1  0
 22 23  1  0
 19 28  1  0
 15 29  1  0
  6 30  1  0
  3  7  1  0
  1 31  1  0
  1 32  1  0
  2 33  1  0
  2 34  1  0
  3 35  1  0
  4 36  1  0
  4 37  1  0
  7 38  1  0
  8 39  1  0
  9 40  1  0
  9 41  1  0
 10 42  1  0
 11 43  1  0
 12 44  1  0
 12 45  1  0
 13 46  1  0
 13 47  1  0
 14 48  1  0
 16 49  1  0
 16 50  1  0
 17 51  1  0
 17 52  1  0
 18 53  1  0
 19 54  1  0
 20 55  1  0
 20 56  1  0
 21 57  1  0
 21 58  1  0
 22 59  1  0
 23 60  1  0
 23 61  1  0
 24 62  1  0
 25 63  1  0
 25 64  1  0
 25 65  1  0
 26 66  1  0
 26 67  1  0
 26 68  1  0
 27 69  1  0
 27 70  1  0
 27 71  1  0
 28 72  1  0
 28 73  1  0
 28 74  1  0
 29 75  1  0
 29 76  1  0
 29 77  1  0
 30 78  1  0
 30 79  1  0
 30 80  1  0
M  END
> <Name>
RAS2013_3

> <Clean Energy>
195.185

$$$$
RAS2013_4
  DSViewer          3D                             0

 78 81  0  0  0  0  0  0  0  0999 V2000
   -3.8645    0.3968   -0.2799 C   0  0
   -5.1632   -0.4229   -0.0133 C   0  0
   -5.0783   -1.7318   -0.8546 C   0  0  1  0  0  0
   -3.8571   -2.5866   -0.4099 C   0  0
   -2.5924   -1.7651   -0.5356 C   0  0
   -2.5699   -0.3928    0.1084 C   0  0  1  0  0  0
   -6.2670   -2.4963   -0.6738 O   0  0
   -1.5287   -2.3123   -1.1455 C   0  0
   -0.2365   -1.5537   -1.4306 C   0  0
    0.1611   -0.3652   -0.5137 C   0  0  1  0  0  0
   -1.2513    0.4675   -0.4108 C   0  0  2  0  0  0
    0.1692    2.2395    0.3220 C   0  0
   -1.1784    1.8029    0.5389 C   0  0
    0.6720   -0.5134    0.8590 C   0  0  2  0  0  0
    1.1288    1.0691    1.0896 C   0  0  1  0  0  0
    2.0457   -1.2981    1.0971 C   0  0
    3.2028   -0.1854    1.1341 C   0  0
    2.6789    1.0354    0.3970 C   0  0  2  0  0  0
    3.6689    2.2632    0.5561 C   0  0  1  0  0  0
    4.9811    1.8891   -0.0484 C   0  0
    6.0968    2.4695    0.3807 C   0  0
    7.4162    2.0939   -0.2218 C   0  0  1  0  0  0
    7.4479    2.9202   -1.5917 C   0  0
    8.5536    2.3792    0.8848 C   0  0
    9.9956    1.9912    0.4787 C   0  0
    8.2565    1.5145    2.1356 C   0  0
    8.6476    2.6832   -2.5437 C   0  0
    3.2340    3.5578   -0.1672 C   0  0
    1.1317    1.3345    2.6676 C   0  0
   -2.6492   -0.6762    1.7047 C   0  0
   -3.8324    0.5870   -1.3614 H   0  0
   -3.8979    1.3526    0.2561 H   0  0
   -5.2709   -0.6682    1.0485 H   0  0
   -6.0326    0.1649   -0.3370 H   0  0
   -4.9696   -1.4634   -1.9147 H   0  0
   -4.0195   -2.8351    0.6461 H   0  0
   -3.7801   -3.5084   -1.0017 H   0  0
   -6.3597   -2.7327    0.2823 H   0  0
   -1.6297   -3.2908   -1.5379 H   0  0
    0.6045   -2.2437   -1.5815 H   0  0
   -0.4541   -1.0826   -2.3985 H   0  0
    0.9125    0.1469   -1.0590 H   0  0
   -1.3963    0.7028   -1.4731 H   0  0
    0.2749    2.2299   -0.7750 H   0  0
    0.4376    3.2320    0.7004 H   0  0
   -1.2342    1.5881    1.5946 H   0  0
   -1.9827    2.4972    0.2648 H   0  0
   -0.1437   -0.9421    1.3339 H   0  0
    2.1192   -2.1181    0.3703 H   0  0
    2.1220   -1.6909    2.1199 H   0  0
    3.2854    0.1400    2.1599 H   0  0
    4.1888   -0.5673    0.8367 H   0  0
    2.5905    0.8046   -0.6646 H   0  0
    3.8151    2.5169    1.6149 H   0  0
    5.0239    1.1592   -0.8172 H   0  0
    6.0522    3.1959    1.1528 H   0  0
    7.4029    1.0308   -0.4982 H   0  0
    7.3926    3.9909   -1.3515 H   0  0
    6.5520    2.6393   -2.1621 H   0  0
    8.5256    3.4431    1.1576 H   0  0
   10.6714    2.2014    1.3192 H   0  0
   10.3193    2.5659   -0.3809 H   0  0
   10.0301    0.9187    0.2417 H   0  0
    9.0163    1.7201    2.9023 H   0  0
    8.2964    0.4521    1.8574 H   0  0
    7.2655    1.7484    2.5433 H   0  0
    8.5090    3.2873   -3.4512 H   0  0
    8.6924    1.6194   -2.8165 H   0  0
    9.5772    2.9787   -2.0668 H   0  0
    3.9993    4.3319   -0.0165 H   0  0
    2.2887    3.9148    0.2358 H   0  0
    3.1257    3.3543   -1.2414 H   0  0
    1.5230    2.3431    2.8576 H   0  0
    1.7430    0.6078    3.2059 H   0  0
    0.1057    1.2673    3.0489 H   0  0
   -1.7920   -1.2547    2.0276 H   0  0
   -3.5465   -1.2405    1.9626 H   0  0
   -2.6711    0.2724    2.2513 H   0  0
  1  2  1  0  0  0
  1  6  1  0  0  0
  2  3  1  0  0  0
  3  4  1  0  0  0
  4  5  1  0  0  0
  5  6  1  0  0  0
  8  9  1  0  0  0
  9 10  1  0  0  0
 10 11  1  0  0  0
  5  8  2  0  0  0
  6 11  1  0  0  0
 12 13  1  0  0  0
 14 15  1  0  0  0
 12 15  1  0  0  0
 13 11  1  0  0  0
 10 14  1  0  0  0
 16 17  1  0  0  0
 17 18  1  0  0  0
 14 16  1  0  0  0
 15 18  1  0  0  0
 18 19  1  0  0  0
 19 20  1  0  0  0
 20 21  2  0  0  0
 21 22  1  0  0  0
 22 24  1  0  0  0
 24 25  1  0  0  0
 24 26  1  0  0  0
 23 27  1  0  0  0
 22 23  1  0  0  0
 19 28  1  0  0  0
 15 29  1  0  0  0
  6 30  1  0  0  0
  3  7  1  0  0  0
  1 31  1  0  0  0
  1 32  1  0  0  0
  2 33  1  0  0  0
  2 34  1  0  0  0
  3 35  1  0  0  0
  4 36  1  0  0  0
  4 37  1  0  0  0
  7 38  1  0  0  0
  8 39  1  0  0  0
  9 40  1  0  0  0
  9 41  1  0  0  0
 10 42  1  0  0  0
 11 43  1  0  0  0
 12 44  1  0  0  0
 12 45  1  0  0  0
 13 46  1  0  0  0
 13 47  1  0  0  0
 14 48  1  0  0  0
 16 49  1  0  0  0
 16 50  1  0  0  0
 17 51  1  0  0  0
 17 52  1  0  0  0
 18 53  1  0  0  0
 19 54  1  0  0  0
 20 55  1  0  0  0
 21 56  1  0  0  0
 22 57  1  0  0  0
 23 58  1  0  0  0
 23 59  1  0  0  0
 24 60  1  0  0  0
 25 61  1  0  0  0
 25 62  1  0  0  0
 25 63  1  0  0  0
 26 64  1  0  0  0
 26 65  1  0  0  0
 26 66  1  0  0  0
 27 67  1  0  0  0
 27 68  1  0  0  0
 27 69  1  0  0  0
 28 70  1  0  0  0
 28 71  1  0  0  0
 28 72  1  0  0  0
 29 73  1  0  0  0
 29 74  1  0  0  0
 29 75  1  0  0  0
 30 76  1  0  0  0
 30 77  1  0  0  0
 30 78  1  0  0  0
M  END
> <Clean Energy>
923156

$$$$
RAS2013_1
  SciTegic12132405553D

 26 28  0  0  0  0            999 V2000
    1.9311   -1.8665   -0.3374 C   0  0
    0.8069   -2.4254    0.1047 C   0  0
    0.8092   -3.8178    0.5478 C   0  0
    1.9350   -4.5268    0.5096 C   0  0
    3.1735   -3.9173    0.0251 C   0  0
    3.1706   -2.6438   -0.3807 C   0  0
    4.4315   -4.7528   -0.0052 C   0  0  1  0  0  0
    5.0228   -4.3541   -1.2795 O   0  0
    5.8349   -4.1799   -0.1307 C   0  0  2  0  0  0
    4.3412   -5.8439    0.0928 H   0  0
    5.9449   -3.2015    0.3581 H   0  0
    6.9151   -5.2011    0.0038 C   0  0
    8.0392   -4.8872    0.6480 C   0  0
    6.7370   -6.4474   -0.5346 O   0  0
    7.7041   -7.3984   -0.4258 C   0  0
    8.9430   -7.0880    0.2708 C   0  0
    9.1051   -5.8761    0.7891 C   0  0
    7.5309   -8.5195   -0.9160 O   0  0
    1.9288   -0.8560   -0.6591 H   0  0
   -0.0900   -1.8604    0.1351 H   0  0
   -0.0863   -4.2636    0.8997 H   0  0
    1.9352   -5.5372    0.8313 H   0  0
    4.0572   -2.1878   -0.7357 H   0  0
    8.1588   -3.9170    1.0589 H   0  0
    9.7058   -7.8191    0.3633 H   0  0
   10.0003   -5.6284    1.3011 H   0  0
  1  2  2  0
  1  6  1  0
  2  3  1  0
  3  4  2  0
  4  5  1  0
  5  6  2  0
  7  5  1  0
  7  8  1  0
  9  7  1  0
  9  8  1  0
  7 10  1  0
  9 11  1  0
  9 12  1  0
 14 15  1  0
 15 16  1  0
 16 17  2  0
 13 17  1  0
 13 12  2  0
 12 14  1  0
 15 18  2  0
  1 19  1  0
  2 20  1  0
  3 21  1  0
  4 22  1  0
  6 23  1  0
 13 24  1  0
 16 25  1  0
 17 26  1  0
M  END
> <Name>
RAS2013_1

> <Clean Energy>
44.5887

$$$$
RAS2013_2
  SciTegic12132405553D

 37 38  0  0  0  0            999 V2000
    3.1062   -3.6174   -0.5041 C   0  0
    2.1148   -4.3322    0.0414 C   0  0
    2.3519   -5.7134    0.4015 C   0  0
    3.5232   -6.3188    0.2166 C   0  0
    4.6958   -5.4887   -0.4257 C   0  0
    4.4131   -4.2105   -0.7493 C   0  0
    0.7942   -3.8201    0.3090 O   0  0
    0.5432   -2.4456   -0.0423 C   0  0
    3.5007   -7.6973    0.7161 O   0  0
    4.6393   -8.5488    0.6912 C   0  0
    5.3454   -3.4068   -1.3824 O   0  0
    6.1031   -6.0581   -0.7677 C   0  0
    6.1887   -7.2128   -1.1843 O   0  0
    7.4224   -5.3247   -0.6445 C   0  0
    7.5742   -4.1654    0.0105 C   0  0
    8.8867   -3.4927    0.1298 C   0  0
   10.2248   -1.6420    0.9458 C   0  0
    8.9497   -2.3448    0.8010 C   0  0
   10.1167   -4.0512   -0.4687 C   0  0
   11.2742   -3.4074   -0.3338 C   0  0
   11.3311   -2.1478    0.4057 C   0  0
    2.9686   -2.6083   -0.7818 H   0  0
    1.5620   -6.2640    0.8450 H   0  0
   -0.4944   -2.1883    0.2136 H   0  0
    0.6975   -2.3065   -1.1228 H   0  0
    1.2294   -1.7907    0.5152 H   0  0
    4.3821   -9.5102    1.1578 H   0  0
    5.4637   -8.0803    1.2480 H   0  0
    4.9418   -8.7256   -0.3449 H   0  0
    4.9524   -2.5164   -1.5517 H   0  0
    8.2729   -5.7844   -1.0669 H   0  0
    6.7362   -3.7118    0.4646 H   0  0
   10.2676   -0.7280    1.4819 H   0  0
    8.0703   -1.9385    1.2325 H   0  0
   10.0864   -4.9623   -1.0061 H   0  0
   12.1563   -3.8092   -0.7638 H   0  0
   12.2543   -1.6367    0.5119 H   0  0
  1  2  2  0
  1  6  1  0
  2  3  1  0
  3  4  2  0
  4  5  1  0
  5  6  2  0
  2  7  1  0
  8  7  1  0
  4  9  1  0
  9 10  1  0
  6 11  1  0
  5 12  1  0
 13 12  2  0
 14 12  1  0
 14 15  2  0
 15 16  1  0
 17 18  1  0
 19 20  2  0
 20 21  1  0
 17 21  2  0
 18 16  2  0
 16 19  1  0
  1 22  1  0
  3 23  1  0
  8 24  1  0
  8 25  1  0
  8 26  1  0
 10 27  1  0
 10 28  1  0
 10 29  1  0
 11 30  1  0
 14 31  1  0
 15 32  1  0
 17 33  1  0
 18 34  1  0
 19 35  1  0
 20 36  1  0
 21 37  1  0
M  END
> <Name>
RAS2013_2

> <Clean Energy>
28.728

$$$$
RAS2013_3
  SciTegic12132405553D

 80 83  0  0  0  0            999 V2000
   -3.9743   -0.0094   -0.0184 C   0  0
   -5.0557   -0.7628    0.8126 C   0  0
   -4.9704   -2.2732    0.4407 C   0  0  1  0  0  0
   -3.5769   -2.8485    0.8201 C   0  0
   -2.4908   -2.0447    0.1392 C   0  0
   -2.5316   -0.5358    0.2672 C   0  0  1  0  0  0
   -5.9746   -2.9997    1.1437 O   0  0
   -1.4940   -2.6947   -0.4756 C   0  0
   -0.4254   -1.9800   -1.2758 C   0  0
   -0.0570   -0.5131   -0.8978 C   0  0  1  0  0  0
   -1.4805    0.1739   -0.7900 C   0  0  2  0  0  0
   -0.0343    2.2498   -0.8649 C   0  0
   -1.3955    1.7517   -0.4108 C   0  0
    0.8128   -0.1357    0.2128 C   0  0  2  0  0  0
    1.0874    1.4167    0.1275 C   0  0  1  0  0  0
    2.2122   -0.7487   -0.0193 C   0  0
    3.1767    0.2041    0.6576 C   0  0
    2.6847    1.4961   -0.2343 C   0  0  2  0  0  0
    3.4565    2.9524   -0.0263 C   0  0  1  0  0  0
    4.9944    3.0016   -0.4263 C   0  0
    5.9714    2.1018    0.4002 C   0  0
    7.5010    2.2234   -0.0441 C   0  0  1  0  0  0
    7.9193    3.7850    0.1530 C   0  0
    8.3487    1.1247    0.8484 C   0  0
    9.8564    1.0042    0.5145 C   0  0
    7.8350   -0.3233    0.5903 C   0  0
    9.3382    4.2298   -0.2898 C   0  0
    2.8750    4.0417   -0.9473 C   0  0
    0.9690    1.9478    1.6537 C   0  0
   -2.2049   -0.2705    1.8224 C   0  0
   -4.2019   -0.2020   -1.0757 H   0  0
   -4.0254    1.0690    0.1738 H   0  0
   -4.8962   -0.6328    1.8888 H   0  0
   -6.0479   -0.3754    0.5454 H   0  0
   -5.1280   -2.3786   -0.6418 H   0  0
   -3.4776   -2.7308    1.9063 H   0  0
   -3.4971   -3.9109    0.5541 H   0  0
   -5.8282   -2.8988    2.1168 H   0  0
   -1.5163   -3.7534   -0.4921 H   0  0
    0.4655   -2.6075   -1.4104 H   0  0
   -0.9087   -1.8834   -2.2574 H   0  0
    0.5184   -0.1214   -1.7492 H   0  0
   -1.8367    0.0059   -1.8146 H   0  0
    0.0711    1.9797   -1.9271 H   0  0
    0.0993    3.3265   -0.7492 H   0  0
   -1.3488    1.8993    0.6354 H   0  0
   -2.2832    2.2765   -0.7873 H   0  0
    0.4047   -0.3699    1.1807 H   0  0
    2.4717   -0.6312   -1.0776 H   0  0
    2.2576   -1.8139    0.2442 H   0  0
    3.0096    0.3006    1.7278 H   0  0
    4.2109   -0.0735    0.4692 H   0  0
    2.8170    1.1952   -1.2805 H   0  0
    3.3553    3.2676    1.0195 H   0  0
    5.0834    2.7377   -1.4887 H   0  0
    5.3033    4.0395   -0.2880 H   0  0
    5.8916    2.3667    1.4629 H   0  0
    5.6604    1.0937    0.2592 H   0  0
    7.5922    1.9596   -1.1065 H   0  0
    7.7867    4.0443    1.2124 H   0  0
    7.2427    4.3975   -0.4450 H   0  0
    8.2301    1.3712    1.9125 H   0  0
   10.3008    0.2302    1.1556 H   0  0
   10.3683    1.9355    0.6960 H   0  0
    9.9732    0.7157   -0.5393 H   0  0
    8.4119   -1.0220    1.2120 H   0  0
    7.9804   -0.5737   -0.4697 H   0  0
    6.7747   -0.4186    0.8452 H   0  0
    9.4380    5.3123   -0.1285 H   0  0
    9.4744    4.0064   -1.3572 H   0  0
   10.0985    3.7238    0.2902 H   0  0
    3.4074    4.9852   -0.7648 H   0  0
    1.8241    4.1904   -0.7410 H   0  0
    3.0102    3.7421   -1.9956 H   0  0
    1.2134    3.0167    1.6829 H   0  0
    1.6301    1.4200    2.3317 H   0  0
   -0.0506    1.8112    2.0163 H   0  0
   -1.2200   -0.6577    2.0632 H   0  0
   -2.9296   -0.7664    2.4703 H   0  0
   -2.2336    0.8027    2.0340 H   0  0
  1  2  1  0
  1  6  1  0
  2  3  1  0
  3  4  1  0
  4  5  1  0
  5  6  1  0
  8  9  1  0
  9 10  1  0
 10 11  1  0
  5  8  2  0
  6 11  1  0
 12 13  1  0
 14 15  1  0
 12 15  1  0
 13 11  1  0
 10 14  1  0
 16 17  1  0
 17 18  1  0
 14 16  1  0
 15 18  1  0
 18 19  1  0
 19 20  1  0
 20 21  1  0
 21 22  1  0
 22 24  1  0
 24 25  1  0
 24 26  1  0
 23 27  1  0
 22 23  1  0
 19 28  1  0
 15 29  1  0
  6 30  1  0
  3  7  1  0
  1 31  1  0
  1 32  1  0
  2 33  1  0
  2 34  1  0
  3 35  1  0
  4 36  1  0
  4 37  1  0
  7 38  1  0
  8 39  1  0
  9 40  1  0
  9 41  1  0
 10 42  1  0
 11 43  1  0
 12 44  1  0
 12 45  1  0
 13 46  1  0
 13 47  1  0
 14 48  1  0
 16 49  1  0
 16 50  1  0
 17 51  1  0
 17 52  1  0
 18 53  1  0
 19 54  1  0
 20 55  1  0
 20 56  1  0
 21 57  1  0
 21 58  1  0
 22 59  1  0
 23 60  1  0
 23 61  1  0
 24 62  1  0
 25 63  1  0
 25 64  1  0
 25 65  1  0
 26 66  1  0
 26 67  1  0
 26 68  1  0
 27 69  1  0
 27 70  1  0
 27 71  1  0
 28 72  1  0
 28 73  1  0
 28 74  1  0
 29 75  1  0
 29 76  1  0
 29 77  1  0
 30 78  1  0
 30 79  1  0
 30 80  1  0
M  END
> <Name>
RAS2013_3

> <Clean Energy>
195.185

$$$$
RAS2013_4
  SciTegic12132405553D

 78 81  0  0  0  0            999 V2000
   -3.8645    0.3968   -0.2799 C   0  0
   -5.1632   -0.4229   -0.0133 C   0  0
   -5.0783   -1.7318   -0.8546 C   0  0  1  0  0  0
   -3.8571   -2.5866   -0.4099 C   0  0
   -2.5924   -1.7651   -0.5356 C   0  0
   -2.5699   -0.3928    0.1084 C   0  0  1  0  0  0
   -6.2670   -2.4963   -0.6738 O   0  0
   -1.5287   -2.3123   -1.1455 C   0  0
   -0.2365   -1.5537   -1.4306 C   0  0
    0.1611   -0.3652   -0.5137 C   0  0  1  0  0  0
   -1.2513    0.4675   -0.4108 C   0  0  2  0  0  0
    0.1692    2.2395    0.3220 C   0  0
   -1.1784    1.8029    0.5389 C   0  0
    0.6720   -0.5134    0.8590 C   0  0  2  0  0  0
    1.1288    1.0691    1.0896 C   0  0  1  0  0  0
    2.0457   -1.2981    1.0971 C   0  0
    3.2028   -0.1854    1.1341 C   0  0
    2.6789    1.0354    0.3970 C   0  0  2  0  0  0
    3.6689    2.2632    0.5561 C   0  0  1  0  0  0
    4.9811    1.8891   -0.0484 C   0  0
    5.3836    0.6229   -0.0247 C   0  0
    6.6990    0.2434   -0.6335 C   0  0  1  0  0  0
    7.7701    0.9121    0.3492 C   0  0
    6.7049   -1.3586   -0.8159 C   0  0
    7.8371   -1.9274   -1.7043 C   0  0
    5.3986   -1.7807   -1.5341 C   0  0
    9.2654    0.8106   -0.0451 C   0  0
    3.2340    3.5578   -0.1672 C   0  0
    1.1317    1.3345    2.6676 C   0  0
   -2.6492   -0.6762    1.7047 C   0  0
   -3.8324    0.5870   -1.3614 H   0  0
   -3.8979    1.3526    0.2561 H   0  0
   -5.2709   -0.6682    1.0485 H   0  0
   -6.0326    0.1649   -0.3370 H   0  0
   -4.9696   -1.4634   -1.9147 H   0  0
   -4.0195   -2.8351    0.6461 H   0  0
   -3.7801   -3.5084   -1.0017 H   0  0
   -6.3597   -2.7327    0.2823 H   0  0
   -1.6297   -3.2908   -1.5379 H   0  0
    0.6045   -2.2437   -1.5815 H   0  0
   -0.4541   -1.0826   -2.3985 H   0  0
    0.9125    0.1469   -1.0590 H   0  0
   -1.3963    0.7028   -1.4731 H   0  0
    0.2749    2.2299   -0.7750 H   0  0
    0.4376    3.2320    0.7004 H   0  0
   -1.2342    1.5881    1.5946 H   0  0
   -1.9827    2.4972    0.2648 H   0  0
   -0.1437   -0.9421    1.3339 H   0  0
    2.1192   -2.1181    0.3703 H   0  0
    2.1220   -1.6909    2.1199 H   0  0
    3.2854    0.1400    2.1599 H   0  0
    4.1888   -0.5673    0.8367 H   0  0
    2.5905    0.8046   -0.6646 H   0  0
    3.8151    2.5169    1.6149 H   0  0
    5.5904    2.6318   -0.4988 H   0  0
    4.7706   -0.1189    0.4222 H   0  0
    6.8106    0.7441   -1.6049 H   0  0
    7.6379    0.4803    1.3508 H   0  0
    7.5440    1.9862    0.3949 H   0  0
    6.7484   -1.8293    0.1759 H   0  0
    7.7183   -3.0172   -1.7788 H   0  0
    8.8075   -1.7113   -1.2734 H   0  0
    7.7698   -1.4833   -2.7072 H   0  0
    5.3864   -2.8741   -1.6425 H   0  0
    5.3670   -1.3146   -2.5288 H   0  0
    4.5196   -1.4694   -0.9567 H   0  0
    9.8693    1.3456    0.7011 H   0  0
    9.4145    1.2696   -1.0326 H   0  0
    9.5833   -0.2273   -0.0716 H   0  0
    3.9993    4.3319   -0.0165 H   0  0
    2.2887    3.9148    0.2358 H   0  0
    3.1257    3.3543   -1.2414 H   0  0
    1.5230    2.3431    2.8576 H   0  0
    1.7430    0.6078    3.2059 H   0  0
    0.1057    1.2673    3.0489 H   0  0
   -1.7920   -1.2547    2.0276 H   0  0
   -3.5465   -1.2405    1.9626 H   0  0
   -2.6711    0.2724    2.2513 H   0  0
  1  2  1  0
  1  6  1  0
  2  3  1  0
  3  4  1  0
  4  5  1  0
  5  6  1  0
  8  9  1  0
  9 10  1  0
 10 11  1  0
  5  8  2  0
  6 11  1  0
 12 13  1  0
 14 15  1  0
 12 15  1  0
 13 11  1  0
 10 14  1  0
 16 17  1  0
 17 18  1  0
 14 16  1  0
 15 18  1  0
 18 19  1  0
 19 20  1  0
 20 21  2  0
 21 22  1  0
 22 24  1  0
 24 25  1  0
 24 26  1  0
 23 27  1  0
 22 23  1  0
 19 28  1  0
 15 29  1  0
  6 30  1  0
  3  7  1  0
  1 31  1  0
  1 32  1  0
  2 33  1  0
  2 34  1  0
  3 35  1  0
  4 36  1  0
  4 37  1  0
  7 38  1  0
  8 39  1  0
  9 40  1  0
  9 41  1  0
 10 42  1  0
 11 43  1  0
 12 44  1  0
 12 45  1  0
 13 46  1  0
 13 47  1  0
 14 48  1  0
 16 49  1  0
 16 50  1  0
 17 51  1  0
 17 52  1  0
 18 53  1  0
 19 54  1  0
 20 55  1  0
 21 56  1  0
 22 57  1  0
 23 58  1  0
 23 59  1  0
 24 60  1  0
 25 61  1  0
 25 62  1  0
 25 63  1  0
 26 64  1  0
 26 65  1  0
 26 66  1  0
 27 67  1  0
 27 68  1  0
 27 69  1  0
 28 70  1  0
 28 71  1  0
 28 72  1  0
 29 73  1  0
 29 74  1  0
 29 75  1  0
 30 76  1  0
 30 77  1  0
 30 78  1  0
M  END
> <Name>
RAS2013_4

> <Clean Energy>
226.376

$$$$
NCY2018_1
  SciTegic12132405553D

 53 53  0  0  0  0            999 V2000
   -5.1170   10.3731   -0.2072 C   0  0
   -3.8968   11.1846   -0.4847 C   0  0
   -2.6778   10.3362   -0.1095 C   0  0
   -1.4229   11.1009   -0.3643 C   0  0
   -0.2457   10.5427   -0.1064 C   0  0
    1.0098   11.3074   -0.3613 C   0  0
    2.2274   10.4587    0.0086 C   0  0
    3.4978   11.2643   -0.2617 C   0  0
    4.7140   10.4164    0.1078 C   0  0
    5.9837   11.2219   -0.1626 C   0  0
    7.1998   10.3741    0.2066 C   0  0
   -5.7162   10.3914    1.1246 C   0  0
   -6.8040    9.6659    1.3740 C   0  0
   -7.3981    8.8510    0.3135 C   0  0
   -6.8509    8.8351   -0.9003 C   0  0
   -5.6555    9.6326   -1.1727 C   0  0
   -8.5329    8.0946    0.5745 O   0  0
    8.4695   11.1796   -0.0638 C   0  0
    9.6858   10.3315    0.3055 C   0  0
   10.9577   11.1376    0.0349 C   0  0
   12.1785   10.2860    0.4057 C   0  0
   -3.8296   11.4263   -1.5544 H   0  0
   -3.8840   12.0846    0.1455 H   0  0
   -2.7138   10.0536    0.9518 H   0  0
   -2.6555    9.4076   -0.6967 H   0  0
   -1.4705   12.0875   -0.7504 H   0  0
   -0.1983    9.5561    0.2796 H   0  0
    1.0448   11.5935   -1.4216 H   0  0
    0.9899   12.2339    0.2292 H   0  0
    2.1807   10.1921    1.0736 H   0  0
    2.2364    9.5432   -0.5989 H   0  0
    3.5450   11.5308   -1.3267 H   0  0
    3.4893   12.1798    0.3460 H   0  0
    4.6670   10.1499    1.1727 H   0  0
    4.7226    9.5010   -0.4999 H   0  0
    6.0306   11.4883   -1.2276 H   0  0
    5.9751   12.1374    0.4450 H   0  0
    7.1529   10.1076    1.2716 H   0  0
    7.2084    9.4587   -0.4010 H   0  0
   -5.2840   10.9822    1.8917 H   0  0
   -7.2399    9.6781    2.3405 H   0  0
   -7.2813    8.2446   -1.6686 H   0  0
   -5.2173    9.6209   -2.1383 H   0  0
   -8.8028    8.2230    1.5177 H   0  0
    8.5162   11.4461   -1.1288 H   0  0
    8.4608   12.0951    0.5438 H   0  0
    9.6384   10.0650    1.3706 H   0  0
    9.6938    9.4160   -0.3022 H   0  0
   11.0028   11.4039   -1.0306 H   0  0
   10.9474   12.0532    0.6429 H   0  0
   13.0973   10.8584    0.2140 H   0  0
   12.1820    9.3699   -0.2022 H   0  0
   12.1266   10.0191    1.4710 H   0  0
  1  2  1  0
  2  3  1  0
  3  4  1  0
  4  5  2  0
  5  6  1  0
  6  7  1  0
  7  8  1  0
  8  9  1  0
  9 10  1  0
 10 11  1  0
 12 13  2  0
 13 14  1  0
 14 15  2  0
 15 16  1  0
 16  1  2  0
 12  1  1  0
 14 17  1  0
 11 18  1  0
 18 19  1  0
 19 20  1  0
 20 21  1  0
  2 22  1  0
  2 23  1  0
  3 24  1  0
  3 25  1  0
  4 26  1  0
  5 27  1  0
  6 28  1  0
  6 29  1  0
  7 30  1  0
  7 31  1  0
  8 32  1  0
  8 33  1  0
  9 34  1  0
  9 35  1  0
 10 36  1  0
 10 37  1  0
 11 38  1  0
 11 39  1  0
 12 40  1  0
 13 41  1  0
 15 42  1  0
 16 43  1  0
 17 44  1  0
 18 45  1  0
 18 46  1  0
 19 47  1  0
 19 48  1  0
 20 49  1  0
 20 50  1  0
 21 51  1  0
 21 52  1  0
 21 53  1  0
M  END
> <Name>
NCY2018_1

> <type>
systematic

> <Clean Energy>
18.0948009490967

$$$$
NCY2018_2
  SciTegic12132405553D

 59 59  0  0  0  0            999 V2000
   -5.6073   10.3521   -0.1656 C   0  0
   -4.3918   11.1769   -0.4239 C   0  0
   -3.1673   10.3195   -0.0899 C   0  0
   -1.9167   11.0967   -0.3276 C   0  0
   -0.7359   10.5327   -0.1016 C   0  0
    0.5153   11.3098   -0.3396 C   0  0
    1.7385   10.4504   -0.0157 C   0  0
    3.0043   11.2691   -0.2677 C   0  0
    4.2260   10.4103    0.0557 C   0  0
    5.4912   11.2288   -0.1964 C   0  0
    6.7128   10.3700    0.1267 C   0  0
   -6.1957   10.3213    1.1709 C   0  0
   -7.2792    9.5839    1.4033 C   0  0
   -7.8795    8.8052    0.3194 C   0  0
   -7.3422    8.8340   -0.8986 C   0  0
   -6.1515    9.6445   -1.1522 C   0  0
   -9.0099    8.0362    0.5626 O   0  0
    7.9780   11.1883   -0.1256 C   0  0
    9.1996   10.3294    0.1973 C   0  0
   10.4648   11.1476   -0.0551 C   0  0
   11.6866   10.2884    0.2679 C   0  0
   12.9541   11.1070    0.0154 C   0  0
   14.1802   10.2442    0.3396 C   0  0
   -4.3345   11.4571   -1.4849 H   0  0
   -4.3762   12.0538    0.2381 H   0  0
   -3.1934    9.9988    0.9608 H   0  0
   -3.1474    9.4126   -0.7102 H   0  0
   -1.9705   12.0968   -0.6763 H   0  0
   -0.6823    9.5325    0.2469 H   0  0
    0.5385   11.6372   -1.3883 H   0  0
    0.4997   12.2125    0.2868 H   0  0
    1.7035   10.1425    1.0385 H   0  0
    1.7430    9.5593   -0.6586 H   0  0
    3.0398   11.5770   -1.3219 H   0  0
    3.0004   12.1602    0.3752 H   0  0
    4.1909   10.1025    1.1099 H   0  0
    4.2300    9.5193   -0.5873 H   0  0
    5.5263   11.5366   -1.2506 H   0  0
    5.4873   12.1198    0.4465 H   0  0
    6.6778   10.0621    1.1808 H   0  0
    6.7166    9.4790   -0.5163 H   0  0
   -5.7589   10.8861    1.9549 H   0  0
   -7.7072    9.5605    2.3731 H   0  0
   -7.7772    8.2696   -1.6838 H   0  0
   -5.7212    9.6684   -2.1211 H   0  0
   -9.2724    8.1304    1.5119 H   0  0
    8.0130   11.4962   -1.1798 H   0  0
    7.9743   12.0793    0.5173 H   0  0
    9.1646   10.0215    1.2515 H   0  0
    9.2033    9.4384   -0.4457 H   0  0
   10.4997   11.4555   -1.1093 H   0  0
   10.4611   12.0387    0.5879 H   0  0
   11.6511    9.9804    1.3222 H   0  0
   11.6896    9.3972   -0.3751 H   0  0
   12.9873   11.4148   -1.0393 H   0  0
   12.9488   11.9982    0.6587 H   0  0
   15.0959   10.8255    0.1606 H   0  0
   14.1787    9.3525   -0.3036 H   0  0
   14.1402    9.9358    1.3941 H   0  0
  1  2  1  0
  2  3  1  0
  3  4  1  0
  4  5  2  0
  5  6  1  0
  6  7  1  0
  7  8  1  0
  8  9  1  0
  9 10  1  0
 10 11  1  0
 12 13  2  0
 13 14  1  0
 14 15  2  0
 15 16  1  0
 16  1  2  0
 12  1  1  0
 14 17  1  0
 11 18  1  0
 18 19  1  0
 19 20  1  0
 20 21  1  0
 21 22  1  0
 22 23  1  0
  2 24  1  0
  2 25  1  0
  3 26  1  0
  3 27  1  0
  4 28  1  0
  5 29  1  0
  6 30  1  0
  6 31  1  0
  7 32  1  0
  7 33  1  0
  8 34  1  0
  8 35  1  0
  9 36  1  0
  9 37  1  0
 10 38  1  0
 10 39  1  0
 11 40  1  0
 11 41  1  0
 12 42  1  0
 13 43  1  0
 15 44  1  0
 16 45  1  0
 17 46  1  0
 18 47  1  0
 18 48  1  0
 19 49  1  0
 19 50  1  0
 20 51  1  0
 20 52  1  0
 21 53  1  0
 21 54  1  0
 22 55  1  0
 22 56  1  0
 23 57  1  0
 23 58  1  0
 23 59  1  0
M  END
> <Name>
NCY2018_2

> <type>
systematic

> <Clean Energy>
16.1831

$$$$
NCY2018_3
  DSViewer          3D                             0

 60 60  0  0  0  0  0  0  0  0999 V2000
   -5.8055   10.4735   -0.2697 C   0  0
   -4.6213   11.3372   -0.5489 C   0  0
   -3.3832   10.5980   -0.1583 C   0  0
   -2.1913   11.1351   -0.3937 C   0  0
   -0.9851   10.4148   -0.0152 C   0  0
    0.2072   10.9518   -0.2501 C   0  0
    1.4442   10.2125    0.1385 C   0  0
    2.6838   11.0309   -0.2272 C   0  0
    3.9341   10.2520    0.1806 C   0  0
    5.1720   11.0698   -0.1846 C   0  0
    6.4216   10.2911    0.2231 C   0  0
   -6.2474   10.2646    1.1076 C   0  0
   -7.3027    9.4927    1.3570 C   0  0
   -8.0191    8.8546    0.2520 C   0  0
   -7.6156    9.0457   -1.0025 C   0  0
   -6.4556    9.8939   -1.2753 C   0  0
   -9.1200    8.0497    0.5132 O   0  0
    7.6594   11.1088   -0.1420 C   0  0
    8.9091   10.3302    0.2658 C   0  0
   10.1469   11.1479   -0.0993 C   0  0
   11.3965   10.3694    0.3084 C   0  0
   12.6345   11.1875   -0.0567 C   0  0
   13.8865   10.4084    0.3513 C   0  0
   15.1289   11.2300   -0.0154 C   0  0
   -4.5530   11.6201   -1.6086 H   0  0
   -4.6496   12.2383    0.0790 H   0  0
   -3.4550    9.6455    0.3031 H   0  0
   -2.1192   12.0867   -0.8562 H   0  0
   -1.0573    9.4631    0.4472 H   0  0
    0.2801   11.9036   -0.7124 H   0  0
    1.4168   10.0128    1.2187 H   0  0
    1.4563    9.2413   -0.3756 H   0  0
    2.6999   11.2106   -1.3111 H   0  0
    2.6601   11.9924    0.3040 H   0  0
    3.9185   10.0724    1.2645 H   0  0
    3.9584    9.2905   -0.3507 H   0  0
    5.1878   11.2494   -1.2685 H   0  0
    5.1479   12.0312    0.3468 H   0  0
    6.4059   10.1114    1.3070 H   0  0
    6.4458    9.3297   -0.3083 H   0  0
   -5.7269   10.7277    1.9069 H   0  0
   -7.6244    9.3401    2.3558 H   0  0
   -8.1348    8.5832   -1.8030 H   0  0
   -6.1318   10.0470   -2.2734 H   0  0
   -9.2787    8.0178    1.4893 H   0  0
    7.6752   11.2885   -1.2258 H   0  0
    7.6352   12.0702    0.3895 H   0  0
    8.8933   10.1504    1.3496 H   0  0
    8.9333    9.3688   -0.2657 H   0  0
   10.1627   11.3277   -1.1831 H   0  0
   10.1226   12.1093    0.4322 H   0  0
   11.3807   10.1896    1.3923 H   0  0
   11.4208    9.4080   -0.2231 H   0  0
   12.6497   11.3673   -1.1407 H   0  0
   12.6097   12.1490    0.4748 H   0  0
   13.8690   10.2288    1.4355 H   0  0
   13.9090    9.4468   -0.1807 H   0  0
   16.0335   10.6767    0.2747 H   0  0
   15.0995   12.1920    0.5160 H   0  0
   15.1396   11.4102   -1.0999 H   0  0
  1  2  1  0  0  0
  2  3  1  0  0  0
  3  4  2  0  0  0
  5  6  2  0  0  0
  6  7  1  0  0  0
  7  8  1  0  0  0
  8  9  1  0  0  0
  9 10  1  0  0  0
 10 11  1  0  0  0
 12 13  2  0  0  0
 13 14  1  0  0  0
 14 15  2  0  0  0
 15 16  1  0  0  0
 16  1  2  0  0  0
 12  1  1  0  0  0
 14 17  1  0  0  0
 11 18  1  0  0  0
 18 19  1  0  0  0
 19 20  1  0  0  0
 20 21  1  0  0  0
 21 22  1  0  0  0
 22 23  1  0  0  0
 23 24  1  0  0  0
  4  5  1  0  0  0
  2 25  1  0  0  0
  2 26  1  0  0  0
  3 27  1  0  0  0
  4 28  1  0  0  0
  5 29  1  0  0  0
  6 30  1  0  0  0
  7 31  1  0  0  0
  7 32  1  0  0  0
  8 33  1  0  0  0
  8 34  1  0  0  0
  9 35  1  0  0  0
  9 36  1  0  0  0
 10 37  1  0  0  0
 10 38  1  0  0  0
 11 39  1  0  0  0
 11 40  1  0  0  0
 12 41  1  0  0  0
 13 42  1  0  0  0
 15 43  1  0  0  0
 16 44  1  0  0  0
 17 45  1  0  0  0
 18 46  1  0  0  0
 18 47  1  0  0  0
 19 48  1  0  0  0
 19 49  1  0  0  0
 20 50  1  0  0  0
 20 51  1  0  0  0
 21 52  1  0  0  0
 21 53  1  0  0  0
 22 54  1  0  0  0
 22 55  1  0  0  0
 23 56  1  0  0  0
 23 57  1  0  0  0
 24 58  1  0  0  0
 24 59  1  0  0  0
 24 60  1  0  0  0
M  END
> <type>
systematic

> <Clean Energy>
0

$$$$
MAC2005_1
  SciTegic12132405553D

 34 35  0  0  0  0            999 V2000
  -22.9760    4.7265   -0.0020 C   0  0
  -23.8048    4.3729   -0.9829 C   0  0
  -23.3305    3.5072   -2.0637 C   0  0
  -22.0738    3.0700   -2.0635 C   0  0
  -21.1676    3.4561   -0.9849 C   0  0
  -21.5983    4.2459   -0.0029 C   0  0
  -20.6931    4.6323    1.0749 C   0  0
  -19.7887    2.9755   -0.9849 C   0  0
  -18.8808    3.3620    0.0946 C   0  0
  -19.3118    4.1517    1.0763 C   0  0
  -25.2251    4.8664   -0.9875 C   0  0
  -26.0076    4.2024    0.1682 C   0  0
  -26.0544    2.6976   -0.0013 C   0  0
  -26.6022    1.8957    0.9176 C   0  0
  -27.2165    2.4274    2.1912 C   0  0
  -26.6064    0.4219    0.6738 C   0  0
  -19.3901    2.2428   -1.8965 O   0  0
  -21.0946    5.3650    1.9854 O   0  0
  -23.3162    5.3563    0.7803 H   0  0
  -23.9900    3.2277   -2.8451 H   0  0
  -21.7302    2.4420   -2.8452 H   0  0
  -17.8793    3.0134    0.0954 H   0  0
  -18.6536    4.4320    1.8591 H   0  0
  -25.7106    4.6302   -1.9445 H   0  0
  -25.2327    5.9468   -0.7879 H   0  0
  -25.5468    4.4479    1.1364 H   0  0
  -27.0388    4.5837    0.1880 H   0  0
  -25.6408    2.2632   -0.8753 H   0  0
  -27.6091    1.6035    2.8038 H   0  0
  -28.0171    3.1375    1.9357 H   0  0
  -26.4561    2.9964    2.7469 H   0  0
  -26.6444   -0.1227    1.6281 H   0  0
  -25.7359    0.1376    0.0650 H   0  0
  -27.5117    0.1761    0.1014 H   0  0
  1  2  2  0
  2  3  1  0
  3  4  2  0
  4  5  1  0
  5  6  2  0
  1  6  1  0
  8  9  1  0
  9 10  2  0
  7 10  1  0
  5  8  1  0
  7  6  1  0
 11 12  1  0
 12 13  1  0
 11  2  1  0
 14 13  2  0
 15 14  1  0
 16 14  1  0
  8 17  2  0
  7 18  2  0
  1 19  1  0
  3 20  1  0
  4 21  1  0
  9 22  1  0
 10 23  1  0
 11 24  1  0
 11 25  1  0
 12 26  1  0
 12 27  1  0
 13 28  1  0
 15 29  1  0
 15 30  1  0
 15 31  1  0
 16 32  1  0
 16 33  1  0
 16 34  1  0
M  END
> <Name>
MAC2005_1

> <Clean Energy>
39.748

$$$$
MAC2005_2
  SciTegic12132405553D

 34 36  0  0  0  0            999 V2000
  -23.0146    5.1760   -0.0968 C   0  0
  -24.1557    4.4958   -0.0449 C   0  0
  -24.1373    3.0236    0.0777 C   0  0
  -22.9581    2.3922    0.1246 C   0  0
  -21.7146    3.1519    0.0710 C   0  0
  -21.7419    4.4769   -0.0382 C   0  0
  -20.4940    5.2328   -0.0949 C   0  0
  -20.4356    2.4502    0.1299 C   0  0
  -19.1844    3.2051    0.0726 C   0  0
  -19.2123    4.5318   -0.0345 C   0  0
  -25.4458    5.2558   -0.0598 C   0  0
  -26.6648    4.4164   -0.5039 C   0  0
  -26.6747    3.1721    0.3905 C   0  0
  -25.4522    2.2431    0.0691 C   0  0
  -25.4535    1.0601    1.0575 C   0  0
  -20.4114    1.2187    0.2285 O   0  0
  -20.5219    6.4642   -0.1943 O   0  0
  -25.5810    1.6234   -1.3479 C   0  0
  -23.0339    6.2330   -0.1699 H   0  0
  -22.9122    1.3371    0.1838 H   0  0
  -18.2553    2.6958    0.1162 H   0  0
  -18.3054    5.0799   -0.0760 H   0  0
  -25.3392    6.1745   -0.6525 H   0  0
  -25.6264    5.5593    0.9804 H   0  0
  -27.5703    5.0181   -0.3473 H   0  0
  -26.5982    4.1276   -1.5578 H   0  0
  -26.6210    3.5270    1.4293 H   0  0
  -27.5914    2.5832    0.2512 H   0  0
  -24.6255    0.3772    0.8271 H   0  0
  -26.4053    0.5187    0.9695 H   0  0
  -25.3416    1.4426    2.0814 H   0  0
  -24.7273    0.9570   -1.5319 H   0  0
  -25.5911    2.4129   -2.1089 H   0  0
  -26.5137    1.0461   -1.4058 H   0  0
  1  2  2  0
  2  3  1  0
  3  4  2  0
  4  5  1  0
  5  6  2  0
  1  6  1  0
  8  9  1  0
  9 10  2  0
  7 10  1  0
  5  8  1  0
  7  6  1  0
 11 12  1  0
 12 13  1  0
 11  2  1  0
 14 13  1  0
 15 14  1  0
  8 16  2  0
  7 17  2  0
  3 14  1  0
 18 14  1  0
  1 19  1  0
  4 20  1  0
  9 21  1  0
 10 22  1  0
 11 23  1  0
 11 24  1  0
 12 25  1  0
 12 26  1  0
 13 27  1  0
 13 28  1  0
 15 29  1  0
 15 30  1  0
 15 31  1  0
 18 32  1  0
 18 33  1  0
 18 34  1  0
M  END
> <Name>
MAC2005_2

> <Clean Energy>
21.5135

$$$$
MAC2005_3
  SciTegic12132405553D

 48 50  0  0  0  0            999 V2000
  -23.2454    5.1797   -1.0182 C   0  0
  -24.4536    4.4204   -0.5447 C   0  0
  -24.4630    3.0723   -0.5492 C   0  0
  -23.2202    2.3201   -1.0129 C   0  0
  -21.9829    3.0402   -0.5769 C   0  0
  -21.9958    4.4890   -0.5799 C   0  0
  -20.9353    5.2032   -0.2066 C   0  0
  -20.9095    2.3476   -0.1996 C   0  0
  -19.7096    3.1223    0.2236 C   0  0
  -19.7215    4.4526    0.2202 C   0  0
  -25.6525    5.2292   -0.1188 C   0  0
  -26.6331    4.4764    0.7959 C   0  0
  -26.9545    3.1927    0.0480 C   0  0
  -25.6812    2.2891   -0.0246 C   0  0
  -25.2910    1.7539    1.3852 C   0  0
  -21.0566    0.8866   -0.2532 O   0  0
  -21.1091    6.6610   -0.2679 O   0  0
  -26.0043    1.0432   -0.8766 C   0  0
  -20.0738   -0.1344    0.0931 C   0  0
  -20.1440    7.7015    0.0717 C   0  0
  -18.7365    7.5049    0.5672 C   0  0
  -18.6708    0.0900    0.5895 C   0  0
  -20.4321   -1.3102   -0.0347 O   0  0
  -20.5234    8.8700   -0.0619 O   0  0
  -23.2572    5.1025   -2.1144 H   0  0
  -23.2786    6.2407   -0.7412 H   0  0
  -23.2190    1.2626   -0.7253 H   0  0
  -23.2271    2.3846   -2.1098 H   0  0
  -18.8410    2.6427    0.5290 H   0  0
  -18.8618    4.9493    0.5231 H   0  0
  -26.1947    5.4669   -1.0440 H   0  0
  -25.3292    6.1826    0.3207 H   0  0
  -26.1940    4.2557    1.7732 H   0  0
  -27.5315    5.0940    0.9296 H   0  0
  -27.7546    2.6219    0.5382 H   0  0
  -27.2754    3.4827   -0.9624 H   0  0
  -24.4147    1.0974    1.2978 H   0  0
  -26.1329    1.1829    1.7991 H   0  0
  -25.0486    2.5866    2.0561 H   0  0
  -25.1393    0.3695   -0.9120 H   0  0
  -26.2674    1.3590   -1.8956 H   0  0
  -26.8543    0.5127   -0.4262 H   0  0
  -18.2439    8.4723    0.7406 H   0  0
  -18.1802    6.9091   -0.1709 H   0  0
  -18.7652    6.9090    1.4910 H   0  0
  -18.1614   -0.8674    0.7694 H   0  0
  -18.7115    0.6908    1.5098 H   0  0
  -18.1239    0.6913   -0.1512 H   0  0
  1  2  1  0
  2  3  2  0
  3  4  1  0
  4  5  1  0
  5  6  1  0
  1  6  1  0
  8  9  1  0
  9 10  2  0
  7 10  1  0
  5  8  2  0
  7  6  2  0
 11 12  1  0
 12 13  1  0
 11  2  1  0
 14 13  1  0
 15 14  1  0
  8 16  1  0
  7 17  1  0
  3 14  1  0
 18 14  1  0
 19 16  1  0
 20 17  1  0
 21 20  1  0
 22 19  1  0
 19 23  2  0
 20 24  2  0
  1 25  1  0
  1 26  1  0
  4 27  1  0
  4 28  1  0
  9 29  1  0
 10 30  1  0
 11 31  1  0
 11 32  1  0
 12 33  1  0
 12 34  1  0
 13 35  1  0
 13 36  1  0
 15 37  1  0
 15 38  1  0
 15 39  1  0
 18 40  1  0
 18 41  1  0
 18 42  1  0
 21 43  1  0
 21 44  1  0
 21 45  1  0
 22 46  1  0
 22 47  1  0
 22 48  1  0
M  END
> <Name>
MAC2005_3

> <Clean Energy>
120.801

$$$$
MAC2005_4
  SciTegic12132405553D

 36 38  0  0  0  0            999 V2000
  -22.9886    5.2337    0.6342 C   0  0
  -24.2274    4.4496    0.3165 C   0  0
  -24.2181    3.1085    0.4162 C   0  0
  -22.9282    2.4157    0.8257 C   0  0
  -21.7412    3.1572    0.2987 C   0  0
  -21.7698    4.4837    0.2083 C   0  0
  -20.6123    5.2071   -0.3078 C   0  0
  -20.5524    2.4214   -0.1187 C   0  0
  -19.3911    3.1438   -0.6361 C   0  0
  -19.4196    4.4719   -0.7262 C   0  0
  -25.4675    5.2195   -0.0598 C   0  0
  -26.5135    4.3946   -0.8302 C   0  0
  -26.7506    3.1630    0.0316 C   0  0
  -25.4613    2.2781    0.0555 C   0  0
  -25.6855    1.0919    1.0163 C   0  0
  -20.5280    1.1888   -0.0353 O   0  0
  -20.6407    6.4396   -0.3912 O   0  0
  -25.1866    1.6491   -1.3425 C   0  0
  -23.0206    6.2605    0.2458 H   0  0
  -22.9414    5.2838    1.7312 H   0  0
  -22.8752    2.5082    1.9195 H   0  0
  -22.9022    1.3478    0.5716 H   0  0
  -18.5265    2.6100   -0.9395 H   0  0
  -18.5777    4.9963   -1.1014 H   0  0
  -25.1955    6.1410   -0.5922 H   0  0
  -25.9308    5.5193    0.8899 H   0  0
  -27.4289    4.9936   -0.9284 H   0  0
  -26.1573    4.1082   -1.8240 H   0  0
  -26.9873    3.5209    1.0435 H   0  0
  -27.5814    2.5518   -0.3458 H   0  0
  -24.8081    0.4333    1.0209 H   0  0
  -26.5618    0.5206    0.6809 H   0  0
  -25.8638    1.4753    2.0305 H   0  0
  -24.2953    1.0099   -1.2871 H   0  0
  -25.0177    2.4346   -2.0884 H   0  0
  -26.0517    1.0414   -1.6400 H   0  0
  1  2  1  0
  2  3  2  0
  3  4  1  0
  4  5  1  0
  5  6  2  0
  1  6  1  0
  8  9  1  0
  9 10  2  0
  7 10  1  0
  5  8  1  0
  7  6  1  0
 11 12  1  0
 12 13  1  0
 11  2  1  0
 14 13  1  0
 15 14  1  0
  8 16  2  0
  7 17  2  0
  3 14  1  0
 18 14  1  0
  1 19  1  0
  1 20  1  0
  4 21  1  0
  4 22  1  0
  9 23  1  0
 10 24  1  0
 11 25  1  0
 11 26  1  0
 12 27  1  0
 12 28  1  0
 13 29  1  0
 13 30  1  0
 15 31  1  0
 15 32  1  0
 15 33  1  0
 18 34  1  0
 18 35  1  0
 18 36  1  0
M  END
> <Name>
MAC2005_4

> <Clean Energy>
70.596

$$$$
MAC2005_5
  SciTegic12132405553D

 36 37  0  0  0  0            999 V2000
  -22.9647    4.7517   -0.1290 C   0  0
  -23.8076    4.3524   -1.0798 C   0  0
  -23.3622    3.3998   -2.0981 C   0  0
  -22.1178    2.9295   -2.0708 C   0  0
  -21.1963    3.3661   -1.0250 C   0  0
  -21.6006    4.2348   -0.1001 C   0  0
  -20.6795    4.6715    0.9449 C   0  0
  -19.8306    2.8494   -0.9949 C   0  0
  -18.9895    3.2468   -0.0425 C   0  0
  -19.4343    4.2014    0.9738 C   0  0
  -25.2140    4.8829   -1.1151 C   0  0
  -26.0087    4.3230    0.0866 C   0  0
  -26.0972    2.8119    0.0231 C   0  0
  -26.6622    2.0917    0.9975 C   0  0
  -26.7075    0.6050    0.8576 C   0  0
  -19.4099    1.9435   -1.9601 O   0  0
  -21.1032    5.5775    1.9086 O   0  0
  -27.2558    2.7278    2.2324 C   0  0
  -23.2841    5.4443    0.6077 H   0  0
  -24.0329    3.0838   -2.8557 H   0  0
  -21.7953    2.2387   -2.8073 H   0  0
  -17.9979    2.8719   -0.0203 H   0  0
  -18.7650    4.5185    1.7327 H   0  0
  -25.7103    4.5936   -2.0518 H   0  0
  -25.1914    5.9744   -0.9917 H   0  0
  -25.5368    4.6230    1.0339 H   0  0
  -27.0291    4.7329    0.0825 H   0  0
  -25.6996    2.3062   -0.8194 H   0  0
  -26.7549    0.1299    1.8479 H   0  0
  -25.8486    0.2551    0.2670 H   0  0
  -27.6225    0.3446    0.3073 H   0  0
  -18.4664    1.6988   -1.7928 H   0  0
  -20.3605    5.7635    2.5346 H   0  0
  -27.6678    1.9599    2.9024 H   0  0
  -28.0381    3.4400    1.9300 H   0  0
  -26.4777    3.3133    2.7447 H   0  0
  1  2  2  0
  2  3  1  0
  3  4  2  0
  4  5  1  0
  5  6  2  0
  1  6  1  0
  8  9  2  0
  9 10  1  0
  7 10  2  0
  5  8  1  0
  7  6  1  0
 11 12  1  0
 12 13  1  0
 11  2  1  0
 14 13  2  0
 15 14  1  0
  8 16  1  0
  7 17  1  0
 18 14  1  0
  1 19  1  0
  3 20  1  0
  4 21  1  0
  9 22  1  0
 10 23  1  0
 11 24  1  0
 11 25  1  0
 12 26  1  0
 12 27  1  0
 13 28  1  0
 15 29  1  0
 15 30  1  0
 15 31  1  0
 16 32  1  0
 17 33  1  0
 18 34  1  0
 18 35  1  0
 18 36  1  0
M  END
> <Name>
MAC2005_5

> <Clean Energy>
38.9446

$$$$
MAC2005_6
  SciTegic12132405553D

 36 38  0  0  0  0            999 V2000
  -23.0043    5.1760   -0.0345 C   0  0
  -24.1466    4.4970   -0.0003 C   0  0
  -24.1320    3.0210    0.0695 C   0  0
  -22.9545    2.3850    0.0940 C   0  0
  -21.7090    3.1417    0.0681 C   0  0
  -21.7332    4.4734   -0.0084 C   0  0
  -20.4806    5.2334   -0.0909 C   0  0
  -20.4287    2.4296    0.1477 C   0  0
  -19.1820    3.2113    0.4320 C   0  0
  -19.2061    4.4987   -0.3762 C   0  0
  -25.4348    5.2604    0.0159 C   0  0
  -26.6572    4.4408   -0.4554 C   0  0
  -26.6685    3.1652    0.3934 C   0  0
  -25.4493    2.2450    0.0359 C   0  0
  -25.4523    1.0271    0.9810 C   0  0
  -20.4034    1.1944    0.1547 O   0  0
  -20.5017    6.4686   -0.0995 O   0  0
  -25.5829    1.6773   -1.4022 C   0  0
  -23.0216    6.2348   -0.0743 H   0  0
  -22.9117    1.3286    0.1198 H   0  0
  -19.2000    3.4983    1.4930 H   0  0
  -18.2834    2.6101    0.2354 H   0  0
  -18.3303    5.1329   -0.1802 H   0  0
  -19.2142    4.2114   -1.4372 H   0  0
  -25.3272    6.1996   -0.5434 H   0  0
  -25.6122    5.5262    1.0668 H   0  0
  -27.5606    5.0389   -0.2748 H   0  0
  -26.5938    4.1903   -1.5191 H   0  0
  -26.6114    3.4821    1.4442 H   0  0
  -27.5870    2.5842    0.2350 H   0  0
  -24.6269    0.3504    0.7243 H   0  0
  -26.4060    0.4921    0.8755 H   0  0
  -25.3372    1.3720    2.0178 H   0  0
  -24.7316    1.0156   -1.6121 H   0  0
  -25.5923    2.4939   -2.1342 H   0  0
  -26.5174    1.1052   -1.4790 H   0  0
  1  2  2  0
  2  3  1  0
  3  4  2  0
  4  5  1  0
  5  6  2  0
  1  6  1  0
  8  9  1  0
  9 10  1  0
  7 10  1  0
  5  8  1  0
  7  6  1  0
 11 12  1  0
 12 13  1  0
 11  2  1  0
 14 13  1  0
 15 14  1  0
  8 16  2  0
  7 17  2  0
  3 14  1  0
 18 14  1  0
  1 19  1  0
  4 20  1  0
  9 21  1  0
  9 22  1  0
 10 23  1  0
 10 24  1  0
 11 25  1  0
 11 26  1  0
 12 27  1  0
 12 28  1  0
 13 29  1  0
 13 30  1  0
 15 31  1  0
 15 32  1  0
 15 33  1  0
 18 34  1  0
 18 35  1  0
 18 36  1  0
M  END
> <Name>
MAC2005_6

> <Clean Energy>
49.0023

$$$$
MAC2005_7a
  SciTegic12132405553D

 34 35  0  0  0  0            999 V2000
  -23.1177    4.6742   -0.0546 C   0  0
  -23.9577    4.3053   -1.0202 C   0  0
  -23.4960    3.4218   -2.0921 C   0  0
  -22.2396    2.9839   -2.0989 C   0  0
  -21.3211    3.3869   -1.0370 C   0  0
  -21.7404    4.1928   -0.0633 C   0  0
  -20.8229    4.5962    0.9979 C   0  0
  -19.9424    2.9055   -1.0447 C   0  0
  -19.0223    3.3091    0.0181 C   0  0
  -19.4420    4.1148    0.9915 C   0  0
  -25.3777    4.7996   -1.0168 C   0  0
  -26.1474    4.1547    0.1582 C   0  0
  -26.1969    2.6474    0.0134 C   0  0
  -26.7345    1.8608    0.9513 C   0  0
  -27.3341    2.4132    2.2230 C   0  0
  -26.7420    0.3832    0.7311 C   0  0
  -19.5543    2.1579   -1.9487 O   0  0
  -21.2136    5.3438    1.9008 O   0  0
  -18.3556    4.5916    2.2467 Cl  0  0
  -23.4487    5.3169    0.7212 H   0  0
  -24.1644    3.1300   -2.8613 H   0  0
  -21.9051    2.3431   -2.8742 H   0  0
  -18.0209    2.9600    0.0135 H   0  0
  -25.8741    4.5482   -1.9644 H   0  0
  -25.3826    5.8830   -0.8346 H   0  0
  -25.6756    4.4155    1.1171 H   0  0
  -27.1782    4.5369    0.1834 H   0  0
  -25.7933    2.1987   -0.8580 H   0  0
  -27.7203    1.5995    2.8533 H   0  0
  -28.1372    3.1197    1.9653 H   0  0
  -26.5672    2.9905    2.7610 H   0  0
  -26.7954   -0.1468    1.6929 H   0  0
  -25.8641    0.0866    0.1393 H   0  0
  -27.6385    0.1324    0.1470 H   0  0
  1  2  2  0
  2  3  1  0
  3  4  2  0
  4  5  1  0
  5  6  2  0
  1  6  1  0
  8  9  1  0
  9 10  2  0
  7 10  1  0
  5  8  1  0
  7  6  1  0
 11 12  1  0
 12 13  1  0
 11  2  1  0
 14 13  2  0
 15 14  1  0
 16 14  1  0
  8 17  2  0
  7 18  2  0
 10 19  1  0
  1 20  1  0
  3 21  1  0
  4 22  1  0
  9 23  1  0
 11 24  1  0
 11 25  1  0
 12 26  1  0
 12 27  1  0
 13 28  1  0
 15 29  1  0
 15 30  1  0
 15 31  1  0
 16 32  1  0
 16 33  1  0
 16 34  1  0
M  END
> <Name>
MAC2005_7a

> <Clean Energy>
39.6785

$$$$
MAC2005_7b
  SciTegic12132405553D

 34 35  0  0  0  0            999 V2000
  -23.1066    4.7407   -0.0019 C   0  0
  -23.9494    4.4066   -0.9777 C   0  0
  -23.4957    3.5482   -2.0731 C   0  0
  -22.2437    3.0980   -2.0911 C   0  0
  -21.3222    3.4626   -1.0181 C   0  0
  -21.7341    4.2458   -0.0229 C   0  0
  -20.8134    4.6108    1.0494 C   0  0
  -19.9485    2.9678   -1.0382 C   0  0
  -19.0252    3.3328    0.0355 C   0  0
  -19.4372    4.1158    1.0304 C   0  0
  -25.3644    4.9149   -0.9617 C   0  0
  -26.1417    4.2457    0.1946 C   0  0
  -26.2062    2.7435    0.0084 C   0  0
  -26.7531    1.9369    0.9237 C   0  0
  -27.3488    2.4602    2.2094 C   0  0
  -26.7754    0.4661    0.6632 C   0  0
  -19.5670    2.2412   -1.9621 O   0  0
  -21.1974    5.3374    1.9721 O   0  0
  -17.4001    2.7481    0.0128 Cl  0  0
  -23.4318    5.3652    0.7909 H   0  0
  -24.1663    3.2842   -2.8503 H   0  0
  -21.9149    2.4752   -2.8834 H   0  0
  -18.7677    4.3805    1.8090 H   0  0
  -25.8624    4.6947   -1.9161 H   0  0
  -25.3586    5.9929   -0.7497 H   0  0
  -25.6682    4.4752    1.1606 H   0  0
  -27.1686    4.6375    0.2296 H   0  0
  -25.8060    2.3149   -0.8747 H   0  0
  -27.7438    1.6334    2.8166 H   0  0
  -28.1445    3.1815    1.9703 H   0  0
  -26.5769    3.0150    2.7638 H   0  0
  -26.7737   -0.0881    1.6128 H   0  0
  -25.9350    0.1835    0.0130 H   0  0
  -27.7091    0.2303    0.1336 H   0  0
  1  2  2  0
  2  3  1  0
  3  4  2  0
  4  5  1  0
  5  6  2  0
  1  6  1  0
  8  9  1  0
  9 10  2  0
  7 10  1  0
  5  8  1  0
  7  6  1  0
 11 12  1  0
 12 13  1  0
 11  2  1  0
 14 13  2  0
 15 14  1  0
 16 14  1  0
  8 17  2  0
  7 18  2  0
  9 19  1  0
  1 20  1  0
  3 21  1  0
  4 22  1  0
 10 23  1  0
 11 24  1  0
 11 25  1  0
 12 26  1  0
 12 27  1  0
 13 28  1  0
 15 29  1  0
 15 30  1  0
 15 31  1  0
 16 32  1  0
 16 33  1  0
 16 34  1  0
M  END
> <Name>
MAC2005_7b

> <Clean Energy>
39.6792

$$$$
MAC2005_8a
  SciTegic12132405553D

 34 36  0  0  0  0            999 V2000
  -23.1125    5.1322   -0.0520 C   0  0
  -24.2521    4.4492   -0.0993 C   0  0
  -24.2329    2.9718   -0.0926 C   0  0
  -23.0549    2.3397   -0.0279 C   0  0
  -21.8128    3.1021    0.0190 C   0  0
  -21.8409    4.4317    0.0113 C   0  0
  -20.5946    5.1907    0.0619 C   0  0
  -20.5348    2.3991    0.0826 C   0  0
  -19.2853    3.1573    0.1341 C   0  0
  -19.3140    4.4882    0.1240 C   0  0
  -25.5389    5.2066   -0.2123 C   0  0
  -26.7806    4.4079    0.2441 C   0  0
  -26.7520    3.0907   -0.5383 C   0  0
  -25.5493    2.1940   -0.0793 C   0  0
  -25.7478    1.6997    1.3784 C   0  0
  -20.5099    1.1637    0.0926 O   0  0
  -20.6229    6.4260    0.0526 O   0  0
  -25.5074    0.9296   -0.9601 C   0  0
  -17.8390    5.3848    0.1846 Cl  0  0
  -23.1318    6.1916   -0.0721 H   0  0
  -23.0098    1.2835    0.0070 H   0  0
  -18.3567    2.6471    0.1794 H   0  0
  -25.6686    5.4184   -1.2823 H   0  0
  -25.4576    6.1733    0.3028 H   0  0
  -26.7654    4.2119    1.3210 H   0  0
  -27.6755    4.9930   -0.0074 H   0  0
  -27.6762    2.5154   -0.3924 H   0  0
  -26.6474    3.3539   -1.6002 H   0  0
  -24.9061    1.0525    1.6603 H   0  0
  -26.6841    1.1289    1.4415 H   0  0
  -25.7916    2.5524    2.0666 H   0  0
  -24.6936    0.2700   -0.6319 H   0  0
  -25.3454    1.2217   -2.0068 H   0  0
  -26.4642    0.3971   -0.8711 H   0  0
  1  2  2  0
  2  3  1  0
  3  4  2  0
  4  5  1  0
  5  6  2  0
  1  6  1  0
  8  9  1  0
  9 10  2  0
  7 10  1  0
  5  8  1  0
  7  6  1  0
 11 12  1  0
 12 13  1  0
 11  2  1  0
 14 13  1  0
 15 14  1  0
  8 16  2  0
  7 17  2  0
  3 14  1  0
 18 14  1  0
 10 19  1  0
  1 20  1  0
  4 21  1  0
  9 22  1  0
 11 23  1  0
 11 24  1  0
 12 25  1  0
 12 26  1  0
 13 27  1  0
 13 28  1  0
 15 29  1  0
 15 30  1  0
 15 31  1  0
 18 32  1  0
 18 33  1  0
 18 34  1  0
M  END
> <Name>
MAC2005_8a

> <Clean Energy>
21.4443

$$$$
MAC2005_8b
  SciTegic12132405553D

 34 36  0  0  0  0            999 V2000
  -23.1140    5.2027   -0.1253 C   0  0
  -24.2550    4.5229   -0.0673 C   0  0
  -24.2365    3.0519    0.0703 C   0  0
  -23.0572    2.4213    0.1246 C   0  0
  -21.8138    3.1805    0.0641 C   0  0
  -21.8412    4.5044   -0.0586 C   0  0
  -20.5932    5.2598   -0.1221 C   0  0
  -20.5348    2.4797    0.1311 C   0  0
  -19.2838    3.2340    0.0670 C   0  0
  -19.3116    4.5595   -0.0535 C   0  0
  -25.5452    5.2825   -0.0908 C   0  0
  -26.7638    4.4384   -0.5273 C   0  0
  -26.7742    3.2034    0.3797 C   0  0
  -25.5512    2.2713    0.0687 C   0  0
  -25.5532    1.0984    1.0691 C   0  0
  -20.5104    1.2492    0.2423 O   0  0
  -20.6211    6.4901   -0.2341 O   0  0
  -25.6789    1.6371   -1.3420 C   0  0
  -17.7706    2.4053    0.1477 Cl  0  0
  -23.1334    6.2589   -0.2091 H   0  0
  -23.0112    1.3668    0.1945 H   0  0
  -18.4046    5.1070   -0.1000 H   0  0
  -25.4383    6.1951   -0.6928 H   0  0
  -25.7267    5.5966    0.9460 H   0  0
  -27.6694    5.0415   -0.3775 H   0  0
  -26.6963    4.1390   -1.5781 H   0  0
  -26.7212    3.5688    1.4148 H   0  0
  -27.6906    2.6129    0.2457 H   0  0
  -24.7249    0.4133    0.8463 H   0  0
  -26.5048    0.5560    0.9859 H   0  0
  -25.4421    1.4913    2.0891 H   0  0
  -24.8250    0.9690   -1.5185 H   0  0
  -25.6886    2.4189   -2.1110 H   0  0
  -26.6115    1.0591   -1.3947 H   0  0
  1  2  2  0
  2  3  1  0
  3  4  2  0
  4  5  1  0
  5  6  2  0
  1  6  1  0
  8  9  1  0
  9 10  2  0
  7 10  1  0
  5  8  1  0
  7  6  1  0
 11 12  1  0
 12 13  1  0
 11  2  1  0
 14 13  1  0
 15 14  1  0
  8 16  2  0
  7 17  2  0
  3 14  1  0
 18 14  1  0
  9 19  1  0
  1 20  1  0
  4 21  1  0
 10 22  1  0
 11 23  1  0
 11 24  1  0
 12 25  1  0
 12 26  1  0
 13 27  1  0
 13 28  1  0
 15 29  1  0
 15 30  1  0
 15 31  1  0
 18 32  1  0
 18 33  1  0
 18 34  1  0
M  END
> <Name>
MAC2005_8b

> <Clean Energy>
21.4443

$$$$
HAS2018_1R
  SciTegic12132405553D

 37 38  0  0  0  0            999 V2000
    3.3467   -0.6544   -0.5618 C   0  0
    2.1920   -1.3058   -0.6783 C   0  0
    1.8233   -2.3514    0.3301 C   0  0
    2.6684   -2.6060    1.3279 C   0  0
    3.9316   -1.8796    1.4375 C   0  0
    4.2517   -0.9524    0.5388 C   0  0
    0.6081   -3.1022    0.2894 O   0  0
   -0.2695   -2.7920   -0.8039 C   0  0
    5.5449   -0.2119    0.6516 C   0  0  1  0  0  0
    5.9018   -0.0328    2.0226 O   0  0
    6.6367   -1.0635   -0.0036 C   0  0
    7.8907   -0.3896    0.0846 N   0  0
    8.9837   -0.9741   -0.4059 C   0  0
   10.3059   -0.3242   -0.3417 C   0  0
    8.8852   -2.0900   -0.9279 O   0  0
   11.6808    1.5668    0.3143 C   0  0
   10.4761    1.0022    0.2691 C   0  0
   11.3637   -0.9555   -0.8484 C   0  0
   12.6871   -0.3325   -0.7975 C   0  0
   12.8380    0.8685   -0.2438 C   0  0
    3.6100    0.0855   -1.2741 H   0  0
    1.5537   -1.0688   -1.4884 H   0  0
    2.4219   -3.3430    2.0492 H   0  0
    4.5954   -2.0931    2.2364 H   0  0
   -1.1675   -3.4228   -0.7393 H   0  0
    0.2443   -2.9867   -1.7570 H   0  0
   -0.5638   -1.7332   -0.7528 H   0  0
    5.4842    0.7455    0.1159 H   0  0
    5.2108    0.5120    2.4744 H   0  0
    6.7149   -2.0377    0.4990 H   0  0
    6.3962   -1.2396   -1.0612 H   0  0
    7.9358    0.5029    0.5086 H   0  0
   11.8012    2.5236    0.7553 H   0  0
    9.6407    1.5111    0.6744 H   0  0
   11.2471   -1.9123   -1.2901 H   0  0
   13.5266   -0.8386   -1.2021 H   0  0
   13.7975    1.3189   -0.2075 H   0  0
  1  2  2  0
  1  6  1  0
  2  3  1  0
  3  4  2  0
  4  5  1  0
  5  6  2  0
  3  7  1  0
  8  7  1  0
  6  9  1  0
  9 11  1  0
 11 12  1  0
 12 13  1  0
 13 14  1  0
 13 15  2  0
 16 17  2  0
 18 19  1  0
 19 20  2  0
 16 20  1  0
 17 14  1  0
 14 18  2  0
  9 10  1  0
  1 21  1  0
  2 22  1  0
  4 23  1  0
  5 24  1  0
  8 25  1  0
  8 26  1  0
  8 27  1  0
  9 28  1  0
 10 29  1  0
 11 30  1  0
 11 31  1  0
 12 32  1  0
 16 33  1  0
 17 34  1  0
 18 35  1  0
 19 36  1  0
 20 37  1  0
M  END
> <Name>
HAS2018_1R

> <Clean Energy>
13.0553998947144

$$$$
HAS2018_1S
  SciTegic12132405553D

 37 38  0  0  0  0            999 V2000
    3.5515   -0.9258   -0.5883 C   0  0
    2.3723   -1.5172   -0.7628 C   0  0
    1.7800   -2.3356    0.3433 C   0  0
    2.4543   -2.4534    1.4860 C   0  0
    3.7489   -1.7968    1.6598 C   0  0
    4.2721   -1.0703    0.6774 C   0  0
    0.5219   -3.0070    0.2499 O   0  0
   -0.1670   -2.8506   -1.0002 C   0  0
    5.6081   -0.4092    0.8853 C   0  0  2  0  0  0
    5.5613    0.9695    0.4946 O   0  0
    6.6372   -1.0885   -0.0254 C   0  0
    7.9129   -0.4759    0.1508 N   0  0
    8.9464   -0.8957   -0.5786 C   0  0
   10.2875   -0.2983   -0.4392 C   0  0
    8.7753   -1.8095   -1.3929 O   0  0
   11.7629    1.3131    0.6206 C   0  0
   10.5429    0.7911    0.5143 C   0  0
   11.2836   -0.7582   -1.1944 C   0  0
   12.6240   -0.1827   -1.0756 C   0  0
   12.8522    0.8036   -0.2113 C   0  0
    3.9710   -0.3463   -1.3711 H   0  0
    1.8742   -1.3949   -1.6884 H   0  0
    2.0476   -3.0296    2.2775 H   0  0
    4.2746   -1.9007    2.5747 H   0  0
   -1.1162   -3.4039   -0.9636 H   0  0
    0.4543   -3.2473   -1.8168 H   0  0
   -0.3735   -1.7847   -1.1777 H   0  0
    5.9186   -0.5109    1.9345 H   0  0
    5.3203    1.0447   -0.4596 H   0  0
    6.7131   -2.1567    0.2199 H   0  0
    6.3376   -0.9967   -1.0785 H   0  0
    8.0165    0.2534    0.8107 H   0  0
   11.9448    2.0989    1.3091 H   0  0
    9.7568    1.1629    1.1185 H   0  0
   11.1054   -1.5437   -1.8839 H   0  0
   13.4143   -0.5519   -1.6788 H   0  0
   13.8239    1.2199   -0.1261 H   0  0
  1  2  2  0
  1  6  1  0
  2  3  1  0
  3  4  2  0
  4  5  1  0
  5  6  2  0
  3  7  1  0
  8  7  1  0
  9  6  1  0
  9 11  1  0
 11 12  1  0
 12 13  1  0
 13 14  1  0
 13 15  2  0
 16 17  2  0
 18 19  1  0
 19 20  2  0
 16 20  1  0
 17 14  1  0
 14 18  2  0
  9 10  1  0
  1 21  1  0
  2 22  1  0
  4 23  1  0
  5 24  1  0
  8 25  1  0
  8 26  1  0
  8 27  1  0
  9 28  1  0
 10 29  1  0
 11 30  1  0
 11 31  1  0
 12 32  1  0
 16 33  1  0
 17 34  1  0
 18 35  1  0
 19 36  1  0
 20 37  1  0
M  END
> <Name>
HAS2018_1S

> <Clean Energy>
13.2533

$$$$
HAS2018_2
  SciTegic12132405553D

 42 43  0  0  0  0            999 V2000
    3.6180   -1.0957    0.8158 C   0  0
    2.4851   -1.7764    0.9689 C   0  0
    1.9530   -2.5986   -0.1655 C   0  0
    2.6334   -2.6293   -1.3104 C   0  0
    3.8756   -1.8752   -1.4593 C   0  0
    4.3423   -1.1457   -0.4509 C   0  0
    0.7470   -3.3621   -0.0967 O   0  0
    0.0494   -3.2977    1.1567 C   0  0
    5.6288   -0.3726   -0.6214 C   0  0  2  0  0  0
    6.7179   -1.2217    0.0373 C   0  0
    7.9760   -0.5613   -0.0825 N   0  0
    9.0626   -1.1233    0.4499 C   0  0
   10.3955   -0.4925    0.3627 C   0  0
    8.9506   -2.2061    1.0350 O   0  0
   11.9112    1.2724   -0.3233 C   0  0
   10.5765    0.6760   -0.2557 C   0  0
   11.5401   -1.1729    0.9725 C   0  0
   12.7539   -0.6296    0.9104 C   0  0
   12.9484    0.6504    0.2322 C   0  0
    5.6303    0.8955    0.1011 O   0  0
    4.8079    1.9665   -0.4040 C   0  0
    4.7958    3.0306    0.2240 O   0  0
    3.9968    1.8898   -1.6910 C   0  0
    3.9966   -0.5128    1.6166 H   0  0
    1.9803   -1.7216    1.8973 H   0  0
    2.2693   -3.2068   -2.1215 H   0  0
    4.4077   -1.9079   -2.3757 H   0  0
   -0.8572   -3.9167    1.1002 H   0  0
   -0.2337   -2.2560    1.3691 H   0  0
    0.6985   -3.6751    1.9608 H   0  0
    5.8892   -0.2520   -1.6825 H   0  0
    6.4918   -1.3761    1.1013 H   0  0
    6.7787   -2.2051   -0.4488 H   0  0
    8.0268    0.3047   -0.5579 H   0  0
   12.0520    2.2011   -0.8154 H   0  0
    9.7566    1.1755   -0.6992 H   0  0
   11.4014   -2.1017    1.4650 H   0  0
   13.5799   -1.1257    1.3533 H   0  0
   13.9153    1.0833    0.1828 H   0  0
    3.5823    2.8754   -1.9452 H   0  0
    3.1805    1.1662   -1.5502 H   0  0
    4.6277    1.5008   -2.5042 H   0  0
  1  2  2  0
  1  6  1  0
  2  3  1  0
  3  4  2  0
  4  5  1  0
  5  6  2  0
  3  7  1  0
  8  7  1  0
  9  6  1  0
  9 10  1  0
 10 11  1  0
 11 12  1  0
 12 13  1  0
 12 14  2  0
 15 16  1  0
 17 18  2  0
 18 19  1  0
 15 19  2  0
 16 13  2  0
 13 17  1  0
 20 21  1  0
 21 22  2  0
 21 23  1  0
  9 20  1  0
  1 24  1  0
  2 25  1  0
  4 26  1  0
  5 27  1  0
  8 28  1  0
  8 29  1  0
  8 30  1  0
  9 31  1  0
 10 32  1  0
 10 33  1  0
 11 34  1  0
 15 35  1  0
 16 36  1  0
 17 37  1  0
 18 38  1  0
 19 39  1  0
 23 40  1  0
 23 41  1  0
 23 42  1  0
M  END
> <Name>
HAS2018_2

> <Clean Energy>
28.5815

$$$$
HAS2018_3
  SciTegic12132405553D

 36 37  0  0  0  0            999 V2000
    3.4061   -0.6453   -0.4443 C   0  0
    2.2449   -1.2715   -0.6204 C   0  0
    1.8255   -2.3440    0.3395 C   0  0
    2.6328   -2.6473    1.3550 C   0  0
    3.9041   -1.9476    1.5302 C   0  0
    4.2688   -0.9977    0.6750 C   0  0
    0.5998   -3.0710    0.2337 O   0  0
   -0.2357   -2.7084   -0.8763 C   0  0
    5.5691   -0.2903    0.8609 C   0  0
    6.6255   -1.0311    0.0346 C   0  0
    7.8899   -0.3871    0.1794 N   0  0
    8.9510   -0.8768   -0.4619 C   0  0
   10.2822   -0.2521   -0.3489 C   0  0
    8.8145   -1.8809   -1.1696 O   0  0
   11.7089    1.4875    0.5645 C   0  0
   10.4971    0.9431    0.4796 C   0  0
   11.3066   -0.7851   -1.0127 C   0  0
   12.6380   -0.1846   -0.9176 C   0  0
   12.8295    0.8976   -0.1666 C   0  0
    3.7056    0.1134   -1.1217 H   0  0
    1.6377   -0.9958   -1.4421 H   0  0
    2.3503   -3.4036    2.0423 H   0  0
    4.5386   -2.1984    2.3419 H   0  0
   -1.1459   -3.3246   -0.8625 H   0  0
    0.3060   -2.8800   -1.8184 H   0  0
   -0.5136   -1.6467   -0.7985 H   0  0
    5.5043    0.7371    0.4766 H   0  0
    5.8765   -0.3200    1.9154 H   0  0
    6.7106   -2.0733    0.3723 H   0  0
    6.3430   -1.0358   -1.0274 H   0  0
    7.9653    0.4148    0.7534 H   0  0
   11.8616    2.3497    1.1629 H   0  0
    9.6884    1.3733    1.0106 H   0  0
   11.1577   -1.6471   -1.6118 H   0  0
   13.4509   -0.6121   -1.4477 H   0  0
   13.7946    1.3319   -0.0985 H   0  0
  1  2  2  0
  1  6  1  0
  2  3  1  0
  3  4  2  0
  4  5  1  0
  5  6  2  0
  3  7  1  0
  8  7  1  0
  9  6  1  0
  9 10  1  0
 10 11  1  0
 11 12  1  0
 12 13  1  0
 12 14  2  0
 15 16  2  0
 17 18  1  0
 18 19  2  0
 15 19  1  0
 16 13  1  0
 13 17  2  0
  1 20  1  0
  2 21  1  0
  4 22  1  0
  5 23  1  0
  8 24  1  0
  8 25  1  0
  8 26  1  0
  9 27  1  0
  9 28  1  0
 10 29  1  0
 10 30  1  0
 11 31  1  0
 15 32  1  0
 16 33  1  0
 17 34  1  0
 18 35  1  0
 19 36  1  0
M  END
> <Name>
HAS2018_3

> <Clean Energy>
13.6444

$$$$
CSR2012_1R
  SciTegic12132405553D

 53 53  0  0  0  0            999 V2000
    1.9784   -1.7754   -0.1266 C   0  0
    1.6005   -2.0010   -1.3987 C   0  0
    1.3683   -3.3685   -1.8644 C   0  0
    1.5271   -4.3993   -1.0406 C   0  0
    1.9356   -4.1724    0.3387 C   0  0
    2.1498   -2.9353    0.7751 C   0  0
    1.3023   -5.6921   -1.5001 O   0  0
    2.1035   -5.2477    1.2055 O   0  0
    2.2485   -0.3528    0.4570 C   0  0  1  0  0  0
    1.3991   -0.1828    1.6915 C   0  0
    3.7335   -0.2562    0.9360 C   0  0
    0.0684   -0.2433    1.6251 C   0  0
    1.9069    0.7813   -0.5601 C   0  0
    4.7600   -0.4455   -0.2200 C   0  0
    6.1529   -0.3492    0.3778 C   0  0
    6.8683    0.7859    0.4135 C   0  0
    8.2258    0.7473    1.0319 C   0  0
    9.2309    0.3815   -0.0653 C   0  0
   10.6207    0.3284    0.5134 C   0  0
    6.3684    2.1033   -0.1400 C   0  0
   11.6903    0.0326   -0.2333 C   0  0
   13.0368    0.0000    0.4148 C   0  0
   11.5846   -0.2699   -1.7097 C   0  0
    1.4658   -1.2136   -2.0839 H   0  0
    1.0711   -3.5383   -2.8678 H   0  0
    2.4472   -2.7828    1.7815 H   0  0
    1.0342   -5.6615   -2.4517 H   0  0
    1.9073   -6.0919    0.7315 H   0  0
    1.8690   -0.0156    2.6268 H   0  0
    3.8919    0.7306    1.3919 H   0  0
    3.9144   -1.0343    1.6886 H   0  0
   -0.4147   -0.4151    0.6953 H   0  0
   -0.5093   -0.1220    2.5055 H   0  0
    2.0975    1.7558   -0.0901 H   0  0
    0.8480    0.7147   -0.8467 H   0  0
    2.5285    0.6838   -1.4599 H   0  0
    4.6140   -1.4481   -0.6426 H   0  0
    4.6006    0.3225   -0.9810 H   0  0
    6.5817   -1.2254    0.7933 H   0  0
    8.4976    1.7367    1.4249 H   0  0
    8.2730   -0.0329    1.8041 H   0  0
    8.9823   -0.5969   -0.5022 H   0  0
    9.2033    1.1251   -0.8753 H   0  0
   10.7546    0.5323    1.5454 H   0  0
    7.1185    2.8939    0.0034 H   0  0
    5.4233    2.3660    0.3581 H   0  0
    6.1353    1.9763   -1.2071 H   0  0
   13.6628    0.7795   -0.0418 H   0  0
   13.5201   -0.9606    0.1870 H   0  0
   12.9530    0.1589    1.4995 H   0  0
   12.5765   -0.4866   -2.1309 H   0  0
   11.1245    0.5889   -2.2212 H   0  0
   10.9059   -1.1237   -1.8548 H   0  0
  1  2  2  0
  1  6  1  0
  2  3  1  0
  3  4  2  0
  4  5  1  0
  5  6  2  0
  4  7  1  0
  5  8  1  0
  9  1  1  0
  9 10  1  0
  9 11  1  0
 10 12  2  0
  9 13  1  0
 11 14  1  0
 14 15  1  0
 15 16  2  0
 16 17  1  0
 17 18  1  0
 18 19  1  0
 16 20  1  0
 19 21  2  0
 21 22  1  0
 21 23  1  0
  2 24  1  0
  3 25  1  0
  6 26  1  0
  7 27  1  0
  8 28  1  0
 10 29  1  0
 11 30  1  0
 11 31  1  0
 12 32  1  0
 12 33  1  0
 13 34  1  0
 13 35  1  0
 13 36  1  0
 14 37  1  0
 14 38  1  0
 15 39  1  0
 17 40  1  0
 17 41  1  0
 18 42  1  0
 18 43  1  0
 19 44  1  0
 20 45  1  0
 20 46  1  0
 20 47  1  0
 22 48  1  0
 22 49  1  0
 22 50  1  0
 23 51  1  0
 23 52  1  0
 23 53  1  0
M  END
> <Name>
CSR2012_1R

> <Clean Energy>
87.8952026367188

$$$$
CSR2012_1S
  SciTegic12132405553D

 53 53  0  0  0  0            999 V2000
    1.9059   -1.4753    0.0926 C   0  0
    1.4322   -1.6141    1.3450 C   0  0
    0.9384   -2.9128    1.8037 C   0  0
    0.9517   -3.9659    0.9931 C   0  0
    1.4612   -3.8327   -0.3646 C   0  0
    1.9127   -2.6589   -0.7946 C   0  0
    0.4787   -5.1924    1.4457 O   0  0
    1.4779   -4.9318   -1.2175 O   0  0
    2.4530   -0.1307   -0.4820 C   0  0  2  0  0  0
    1.7175    0.1663   -1.7651 C   0  0
    3.9565   -0.3062   -0.8737 C   0  0
    0.3960    0.3467   -1.7751 C   0  0
    2.2591    1.0605    0.5087 C   0  0
    4.8559   -0.6539    0.3388 C   0  0
    6.2788   -0.8109   -0.1229 C   0  0
    7.2700   -1.1127    0.7223 C   0  0
    8.6557   -1.2488    0.1864 C   0  0
    9.3054    0.1385    0.2110 C   0  0
   10.7107    0.0533   -0.3249 C   0  0
    7.0358   -1.3185    2.2005 C   0  0
   11.5044    1.1261   -0.4116 C   0  0
   12.8865    0.9569   -0.9551 C   0  0
   11.0515    2.5018    0.0209 C   0  0
    1.4064   -0.8067    2.0195 H   0  0
    0.5669   -3.0144    2.7915 H   0  0
    2.2816   -2.5745   -1.7852 H   0  0
    0.1740   -5.1025    2.3825 H   0  0
    1.1119   -5.7218   -0.7507 H   0  0
    2.2607    0.2290   -2.6732 H   0  0
    4.0396   -1.1164   -1.6096 H   0  0
    4.3148    0.6289   -1.3243 H   0  0
   -0.1608    0.2813   -0.8734 H   0  0
   -0.1008    0.5533   -2.6883 H   0  0
    2.6436    1.9796    0.0463 H   0  0
    2.8017    0.8690    1.4439 H   0  0
    1.1904    1.1842    0.7333 H   0  0
    4.8148    0.1348    1.1017 H   0  0
    4.5275   -1.5909    0.8108 H   0  0
    6.5023   -0.6771   -1.1510 H   0  0
    9.2518   -1.9152    0.8250 H   0  0
    8.6307   -1.5884   -0.8582 H   0  0
    8.7256    0.8443   -0.4021 H   0  0
    9.3318    0.5323    1.2376 H   0  0
   11.0822   -0.8875   -0.6435 H   0  0
    6.5933   -0.4046    2.6241 H   0  0
    7.9784   -1.5644    2.7100 H   0  0
    6.2964   -2.1212    2.3406 H   0  0
   13.4678    1.8832   -0.8413 H   0  0
   12.8100    0.6852   -2.0173 H   0  0
   13.3715    0.1099   -0.4496 H   0  0
   11.8524    3.2388   -0.1335 H   0  0
   10.7551    2.4668    1.0800 H   0  0
   10.1523    2.7805   -0.5487 H   0  0
  1  2  2  0
  1  6  1  0
  2  3  1  0
  3  4  2  0
  4  5  1  0
  5  6  2  0
  4  7  1  0
  5  8  1  0
  9  1  1  0
  9 10  1  0
  9 11  1  0
 10 12  2  0
  9 13  1  0
 11 14  1  0
 14 15  1  0
 15 16  2  0
 16 17  1  0
 17 18  1  0
 18 19  1  0
 16 20  1  0
 19 21  2  0
 21 22  1  0
 21 23  1  0
  2 24  1  0
  3 25  1  0
  6 26  1  0
  7 27  1  0
  8 28  1  0
 10 29  1  0
 11 30  1  0
 11 31  1  0
 12 32  1  0
 12 33  1  0
 13 34  1  0
 13 35  1  0
 13 36  1  0
 14 37  1  0
 14 38  1  0
 15 39  1  0
 17 40  1  0
 17 41  1  0
 18 42  1  0
 18 43  1  0
 19 44  1  0
 20 45  1  0
 20 46  1  0
 20 47  1  0
 22 48  1  0
 22 49  1  0
 22 50  1  0
 23 51  1  0
 23 52  1  0
 23 53  1  0
M  END
> <Name>
CSR2012_1S

> <Clean Energy>
84.8259

$$$$
CSR2012_2R
  SciTegic12132405553D

 55 55  0  0  0  0            999 V2000
    2.1614   -1.8207   -0.2506 C   0  0
    1.7048   -2.1321   -1.4777 C   0  0
    1.4883   -3.5301   -1.8506 C   0  0
    1.7375   -4.5078   -0.9860 C   0  0
    2.2304   -4.1924    0.3464 C   0  0
    2.4328   -2.9277    0.7002 C   0  0
    1.5255   -5.8303   -1.3585 O   0  0
    2.4914   -5.2121    1.2562 O   0  0
    2.4154   -0.3465    0.2207 C   0  0  1  0  0  0
    3.8795   -0.2141    0.7592 C   0  0
    2.1542    0.7088   -0.9033 C   0  0
    4.9600   -0.5103   -0.3246 C   0  0
    6.3225   -0.3665    0.3303 C   0  0
    7.0426    0.7659    0.3037 C   0  0
    8.3682    0.7774    0.9888 C   0  0
    9.4227    0.3141   -0.0217 C   0  0
   10.7824    0.3075    0.6268 C   0  0
    6.5788    2.0321   -0.3844 C   0  0
   11.8846   -0.0562   -0.0379 C   0  0
   13.1978   -0.0362    0.6757 C   0  0
   11.8484   -0.4868   -1.4856 C   0  0
    1.4995   -0.0444    1.4458 C   0  0
    0.0409   -0.1538    1.0646 C   0  0
   -0.6480   -1.3453    1.2731 O   0  0
   -0.5524    0.8215    0.5897 O   0  0
    1.4927   -1.3899   -2.1924 H   0  0
    1.1289   -3.7650   -2.8200 H   0  0
    2.7904   -2.7130    1.6747 H   0  0
    1.1923   -5.8609   -2.2894 H   0  0
    2.2914   -6.0869    0.8432 H   0  0
    4.0193   -0.9209    1.5864 H   0  0
    4.0240    0.8091    1.1321 H   0  0
    2.3441    1.7140   -0.5030 H   0  0
    1.1131    0.6440   -1.2454 H   0  0
    2.8197    0.5250   -1.7564 H   0  0
    4.8263   -1.5459   -0.6631 H   0  0
    4.8455    0.1871   -1.1579 H   0  0
    6.7249   -1.2048    0.8396 H   0  0
    8.6278    1.7965    1.3072 H   0  0
    8.3722    0.0674    1.8274 H   0  0
    9.1884   -0.6980   -0.3834 H   0  0
    9.4398    0.9842   -0.8937 H   0  0
   10.8676    0.6007    1.6423 H   0  0
    7.3262    2.8304   -0.2729 H   0  0
    5.6123    2.3390    0.0426 H   0  0
    6.3967    1.8145   -1.4468 H   0  0
   13.8588    0.6831    0.1720 H   0  0
   13.6745   -1.0213    0.5731 H   0  0
   13.0648    0.2346    1.7330 H   0  0
   12.8579   -0.7427   -1.8371 H   0  0
   11.4200    0.3252   -2.0922 H   0  0
   11.1712   -1.3479   -1.5884 H   0  0
    1.7328   -0.7753    2.2312 H   0  0
    1.7243    0.9813    1.7684 H   0  0
   -0.0401   -2.0155    1.6693 H   0  0
  1  2  2  0
  1  6  1  0
  2  3  1  0
  3  4  2  0
  4  5  1  0
  5  6  2  0
  4  7  1  0
  5  8  1  0
  9 11  1  0
 10 12  1  0
 12 13  1  0
 13 14  2  0
 14 15  1  0
 15 16  1  0
 16 17  1  0
 14 18  1  0
 17 19  2  0
 19 20  1  0
 19 21  1  0
  9  1  1  0
  9 10  1  0
  9 22  1  0
 22 23  1  0
 23 24  1  0
 23 25  2  0
  2 26  1  0
  3 27  1  0
  6 28  1  0
  7 29  1  0
  8 30  1  0
 10 31  1  0
 10 32  1  0
 11 33  1  0
 11 34  1  0
 11 35  1  0
 12 36  1  0
 12 37  1  0
 13 38  1  0
 15 39  1  0
 15 40  1  0
 16 41  1  0
 16 42  1  0
 17 43  1  0
 18 44  1  0
 18 45  1  0
 18 46  1  0
 20 47  1  0
 20 48  1  0
 20 49  1  0
 21 50  1  0
 21 51  1  0
 21 52  1  0
 22 53  1  0
 22 54  1  0
 24 55  1  0
M  END
> <Name>
CSR2012_2R

> <Clean Energy>
86.2448

$$$$
CSR2012_2S
  DSViewer          3D                             0

 55 55  0  0  0  0  0  0  0  0999 V2000
    2.0728   -1.5136    0.2069 C   0  0
    1.5119   -1.6902    1.4175 C   0  0
    1.0320   -3.0118    1.8217 C   0  0
    1.1420   -4.0518    1.0020 C   0  0
    1.7441   -3.8820   -0.3118 C   0  0
    2.1854   -2.6881   -0.6935 C   0  0
    0.6799   -5.3000    1.4037 O   0  0
    1.8603   -4.9672   -1.1746 O   0  0
    2.6082    0.8723    0.7040 C   0  0  2  0  0  0
    4.0974   -0.2803   -0.7550 C   0  0
    2.4843    1.0018    0.7790 C   0  0
    5.0414   -0.7176    0.3946 C   0  0
    6.4441   -0.8457   -0.1330 C   0  0
    7.4656   -1.2121    0.6483 C   0  0
    8.8283   -1.3138    0.0498 C   0  0
    9.4870    0.0660    0.1481 C   0  0
   10.8697    0.0149   -0.4476 C   0  0
    7.2878   -1.5245    2.1156 C   0  0
   11.6657    1.0888   -0.4887 C   0  0
   13.0245    0.9545   -1.0971 C   0  0
   11.2383    2.4314    0.0584 C   0  0
    1.8223    0.2820   -1.5791 C   0  0
    0.3507    0.4480   -1.2763 C   0  0
   -0.5290   -0.6103   -1.4855 O   0  0
   -0.0812    1.5313   -0.8657 O   0  0
    1.4034   -0.8945    2.0969 H   0  0
    0.5921   -3.1406    2.7777 H   0  0
    2.6202   -2.5792   -1.6541 H   0  0
    0.3042   -5.2340    2.3163 H   0  0
    1.4883   -5.7756   -0.7457 H   0  0
    4.4439    0.6837   -1.1505 H   0  0
    4.1496   -1.0345   -1.5500 H   0  0
    2.8699    1.9407    0.3593 H   0  0
    3.0628    0.7379    1.6736 H   0  0
    1.4327    1.1355    1.0639 H   0  0
    5.0357    0.0138    1.2133 H   0  0
    4.7255   -1.6850    0.8105 H   0  0
    6.6281   -0.6380   -1.1566 H   0  0
    9.4449   -2.0265    0.6148 H   0  0
    8.7605   -1.5772   -1.0148 H   0  0
    8.8880    0.8159   -0.3894 H   0  0
    9.5559    0.3848    1.1986 H   0  0
   11.2228   -0.9018   -0.8468 H   0  0
    8.2480   -1.8102    2.5683 H   0  0
    6.5493   -2.3326    2.2258 H   0  0
    6.8681   -0.6424    2.6218 H   0  0
   13.5932    1.8900   -0.9966 H   0  0
   12.9077    0.6856   -2.1564 H   0  0
   13.5482    0.1147   -0.6189 H   0  0
   12.0368    3.1750   -0.0743 H   0  0
   10.9831    2.3216    1.1231 H   0  0
   10.3192    2.7530   -0.4541 H   0  0
    2.2424    1.2378   -1.9206 H   0  0
    1.9594   -0.5099   -2.3271 H   0  0
   -0.0321   -1.3930   -1.8263 H   0  0
  1  2  2  0  0  0
  1  6  1  0  0  0
  2  3  1  0  0  0
  3  4  2  0  0  0
  4  5  1  0  0  0
  5  6  2  0  0  0
  4  7  1  0  0  0
  5  8  1  0  0  0
  9 11  1  0  0  0
 10 12  1  0  0  0
 12 13  1  0  0  0
 13 14  2  0  0  0
 14 15  1  0  0  0
 15 16  1  0  0  0
 16 17  1  0  0  0
 14 18  1  0  0  0
 17 19  2  0  0  0
 19 20  1  0  0  0
 19 21  1  0  0  0
  9  1  1  0  0  0
  9 10  1  0  0  0
  9 22  1  0  0  0
 22 23  1  0  0  0
 23 24  1  0  0  0
 23 25  2  0  0  0
  2 26  1  0  0  0
  3 27  1  0  0  0
  6 28  1  0  0  0
  7 29  1  0  0  0
  8 30  1  0  0  0
 10 31  1  0  0  0
 10 32  1  0  0  0
 11 33  1  0  0  0
 11 34  1  0  0  0
 11 35  1  0  0  0
 12 36  1  0  0  0
 12 37  1  0  0  0
 13 38  1  0  0  0
 15 39  1  0  0  0
 15 40  1  0  0  0
 16 41  1  0  0  0
 16 42  1  0  0  0
 17 43  1  0  0  0
 18 44  1  0  0  0
 18 45  1  0  0  0
 18 46  1  0  0  0
 20 47  1  0  0  0
 20 48  1  0  0  0
 20 49  1  0  0  0
 21 50  1  0  0  0
 21 51  1  0  0  0
 21 52  1  0  0  0
 22 53  1  0  0  0
 22 54  1  0  0  0
 24 55  1  0  0  0
M  END
> <Clean Energy>
4.88889e+12

$$$$
AJSJ2013
  DSViewer          3D                             0

109109  0  0  0  0  0  0  0  0999 V2000
    9.5265    9.2848   -0.0145 C   0  0
   10.8954    9.8647   -0.0232 C   0  0
   11.9994    9.1134   -0.0078 C   0  0
   13.3078    9.7578   -0.0179 C   0  0
   14.4605    8.9807   -0.0022 O   0  0
   15.6093    9.8264   -0.0163 C   0  0
   16.8748    8.9644    0.0009 C   0  0
   18.1014    9.8777   -0.0145 C   0  0
   19.3637    9.0167    0.0026 C   0  0
   20.5899    9.9279   -0.0129 C   0  0
   21.8506    9.0650    0.0041 C   0  0
   23.0785    9.9740   -0.0116 C   0  0
   24.3375    9.1087    0.0053 C   0  0
   25.5672   10.0152   -0.0104 C   0  0
   26.8244    9.1473    0.0063 C   0  0
   28.0560   10.0512   -0.0095 C   0  0
   29.3114    9.1807    0.0072 C   0  0
   30.5449   10.0820   -0.0087 C   0  0
   31.7985    9.2089    0.0079 C   0  0
   33.0338   10.1077   -0.0080 C   0  0
   34.2857    9.2322    0.0085 C   0  0
   35.5226   10.1288   -0.0075 C   0  0
   36.7731    9.2512    0.0089 C   0  0
   38.0113   10.1459   -0.0071 C   0  0
   39.2606    9.2666    0.0093 C   0  0
   40.4999   10.1600   -0.0068 C   0  0
   41.7483    9.2794    0.0096 C   0  0
    8.3942   10.2071   -0.0330 C   0  0
    7.1471    9.7466   -0.0263 C   0  0
    6.8923    8.3119   -0.0003 C   0  0
    7.9006    7.4438    0.0171 C   0  0
    9.3066    7.9650    0.0095 C   0  0
   13.3887   10.9914   -0.0405 O   0  0
    5.5843    7.8466    0.0064 O   0  0
    7.5674    6.0539    0.0422 O   0  0
    8.6847    5.1522    0.0603 C   0  0
   42.9883   10.1718   -0.0065 C   0  0
   44.2362    9.2905    0.0098 C   0  0
   45.4766   10.1822   -0.0063 C   0  0
   46.7244    9.3003    0.0099 C   0  0
   47.9665   10.1923   -0.0062 C   0  0
   49.2182    9.3082    0.0097 C   0  0
   50.3810   10.1358   -0.0063 O   0  0
   18.0894   10.4950   -0.9235 H   0  0
   18.0875   10.5279    0.8713 H   0  0
   10.9980   10.9199   -0.0425 H   0  0
   11.9391    8.0580    0.0115 H   0  0
   15.6006   10.4440   -0.9255 H   0  0
   15.5986   10.4769    0.8696 H   0  0
   16.8884    8.3471    0.9101 H   0  0
   16.8904    8.3142   -0.8850 H   0  0
   19.3757    8.3994    0.9116 H   0  0
   19.3775    8.3665   -0.8831 H   0  0
   20.5785   10.5451   -0.9219 H   0  0
   20.5768   10.5780    0.8728 H   0  0
   21.8615    8.4477    0.9130 H   0  0
   21.8631    8.4148   -0.8816 H   0  0
   23.0681   10.5912   -0.9206 H   0  0
   23.0666   10.6241    0.8742 H   0  0
   24.3473    8.4914    0.9142 H   0  0
   24.3487    8.4585   -0.8804 H   0  0
   25.5580   10.6324   -0.9194 H   0  0
   25.5567   10.6654    0.8753 H   0  0
   26.8330    8.5300    0.9153 H   0  0
   26.8342    8.4971   -0.8793 H   0  0
   28.0480   10.6685   -0.9184 H   0  0
   28.0470   10.7014    0.8763 H   0  0
   29.3187    8.5633    0.9161 H   0  0
   29.3197    8.5304   -0.8785 H   0  0
   30.5382   10.6993   -0.9176 H   0  0
   30.5373   10.7322    0.8771 H   0  0
   31.8046    8.5915    0.9168 H   0  0
   31.8054    8.5586   -0.8778 H   0  0
   33.0282   10.7250   -0.9170 H   0  0
   33.0275   10.7579    0.8777 H   0  0
   34.2908    8.6147    0.9174 H   0  0
   34.2914    8.5819   -0.8772 H   0  0
   35.5180   10.7461   -0.9165 H   0  0
   35.5174   10.7790    0.8783 H   0  0
   36.7772    8.6337    0.9178 H   0  0
   36.7777    8.6009   -0.8768 H   0  0
   38.0076   10.7633   -0.9160 H   0  0
   38.0071   10.7961    0.8787 H   0  0
   39.2640    8.6492    0.9182 H   0  0
   39.2644    8.6164   -0.8764 H   0  0
   40.4968   10.7773   -0.9157 H   0  0
   40.4964   10.8101    0.8790 H   0  0
   41.7512    8.6620    0.9185 H   0  0
   41.7515    8.6292   -0.8762 H   0  0
    8.5693   11.2527   -0.0520 H   0  0
    6.3335   10.4264   -0.0400 H   0  0
   10.1259    7.3036    0.0228 H   0  0
    4.9625    8.6158   -0.0087 H   0  0
    8.3160    4.1168    0.0788 H   0  0
    9.2947    5.3378    0.9569 H   0  0
    9.2973    5.3048   -0.8407 H   0  0
   42.9856   10.7892   -0.9154 H   0  0
   42.9853   10.8220    0.8793 H   0  0
   44.2387    8.6730    0.9187 H   0  0
   44.2390    8.6403   -0.8760 H   0  0
   45.4741   10.7997   -0.9152 H   0  0
   45.4739   10.8324    0.8795 H   0  0
   46.7263    8.6827    0.9189 H   0  0
   46.7265    8.6500   -0.8759 H   0  0
   47.9630   10.8099   -0.9154 H   0  0
   47.9627   10.8428    0.8796 H   0  0
   49.2176    8.6901    0.9188 H   0  0
   49.2167    8.6580   -0.8766 H   0  0
   50.3749   10.6937   -0.8234 H   0  0
  1  2  1  0  0  0
  2  3  2  0  0  0
  3  4  1  0  0  0
  4  5  1  0  0  0
  5  6  1  0  0  0
  6  7  1  0  0  0
  7  8  1  0  0  0
  8  9  1  0  0  0
  9 10  1  0  0  0
 10 11  1  0  0  0
 11 12  1  0  0  0
 12 13  1  0  0  0
 13 14  1  0  0  0
 14 15  1  0  0  0
 15 16  1  0  0  0
 16 17  1  0  0  0
 17 18  1  0  0  0
 18 19  1  0  0  0
 19 20  1  0  0  0
 20 21  1  0  0  0
 21 22  1  0  0  0
 22 23  1  0  0  0
 23 24  1  0  0  0
 24 25  1  0  0  0
 25 26  1  0  0  0
 26 27  1  0  0  0
 28 29  2  0  0  0
 29 30  1  0  0  0
 30 31  2  0  0  0
 31 32  1  0  0  0
 32  1  2  0  0  0
 28  1  1  0  0  0
  4 33  2  0  0  0
 30 34  1  0  0  0
 31 35  1  0  0  0
 35 36  1  0  0  0
 27 37  1  0  0  0
 37 38  1  0  0  0
 38 39  1  0  0  0
 39 40  1  0  0  0
 40 41  1  0  0  0
 41 42  1  0  0  0
 42 43  1  0  0  0
  8 44  1  0  0  0
  8 45  1  0  0  0
  2 46  1  0  0  0
  3 47  1  0  0  0
  6 48  1  0  0  0
  6 49  1  0  0  0
  7 50  1  0  0  0
  7 51  1  0  0  0
  9 52  1  0  0  0
  9 53  1  0  0  0
 10 54  1  0  0  0
 10 55  1  0  0  0
 11 56  1  0  0  0
 11 57  1  0  0  0
 12 58  1  0  0  0
 12 59  1  0  0  0
 13 60  1  0  0  0
 13 61  1  0  0  0
 14 62  1  0  0  0
 14 63  1  0  0  0
 15 64  1  0  0  0
 15 65  1  0  0  0
 16 66  1  0  0  0
 16 67  1  0  0  0
 17 68  1  0  0  0
 17 69  1  0  0  0
 18 70  1  0  0  0
 18 71  1  0  0  0
 19 72  1  0  0  0
 19 73  1  0  0  0
 20 74  1  0  0  0
 20 75  1  0  0  0
 21 76  1  0  0  0
 21 77  1  0  0  0
 22 78  1  0  0  0
 22 79  1  0  0  0
 23 80  1  0  0  0
 23 81  1  0  0  0
 24 82  1  0  0  0
 24 83  1  0  0  0
 25 84  1  0  0  0
 25 85  1  0  0  0
 26 86  1  0  0  0
 26 87  1  0  0  0
 27 88  1  0  0  0
 27 89  1  0  0  0
 28 90  1  0  0  0
 29 91  1  0  0  0
 32 92  1  0  0  0
 34 93  1  0  0  0
 36 94  1  0  0  0
 36 95  1  0  0  0
 36 96  1  0  0  0
 37 97  1  0  0  0
 37 98  1  0  0  0
 38 99  1  0  0  0
 38100  1  0  0  0
 39101  1  0  0  0
 39102  1  0  0  0
 40103  1  0  0  0
 40104  1  0  0  0
 41105  1  0  0  0
 41106  1  0  0  0
 42107  1  0  0  0
 42108  1  0  0  0
 43109  1  0  0  0
M  END
> <type>
systematic

> <Clean Energy>
0

$$$$
1_IKTMT2020
  SciTegic12132405553D

 55 58  0  0  0  0            999 V2000
    4.1551    1.6884    0.8068 C   0  0  1  0  0  0
    3.4971    2.8690    0.1095 C   0  0  1  0  0  0
    4.0402    2.9610   -1.3207 C   0  0  2  0  0  0
    5.4696    3.1479   -1.3001 O   0  0
    5.6621    1.9067    0.8039 C   0  0  1  0  0  0
    2.0846    2.6804    0.0819 O   0  0
    3.6792    1.5989    2.1465 O   0  0
    6.2743    0.8173    1.4859 O   0  0
    3.4262    4.1271   -2.0293 C   0  0
    9.9615    2.0428   -0.4151 C   0  0
    8.6734    1.3416   -0.4832 C   0  0
    8.6626   -0.0201   -0.3087 C   0  0
   10.0083   -0.7194   -0.0119 C   0  0
   11.1181    0.0081    0.0410 C   0  0
   11.0991    1.4138   -0.1690 C   0  0
   12.2637    2.1297   -0.1141 O   0  3
   12.3892   -0.6171    0.3130 C   0  0
   13.4772    0.1418    0.3525 C   0  0
   13.3667    1.6050    0.1181 C   0  0
   14.5546    2.4859    0.1520 C   0  0
   15.4044    4.7466   -0.0677 C   0  0
   14.3638    3.9173   -0.0887 C   0  0
   15.7831    2.0167    0.3934 C   0  0
   16.9249    2.9322    0.4157 C   0  0
   16.7436    4.2319    0.1960 C   0  0
    7.5719    2.2931   -0.7525 O   0  0
    7.5128   -0.8357   -0.4124 O   0  0
   10.2058   -2.1385    0.2226 O   0  0
    9.0755   -3.0147    0.1926 C   0  0
   15.2150    6.1036   -0.2971 O   0  0
   17.8292    5.0986    0.2177 O   0  0
    6.1445    2.0271   -0.6905 C   0  0  2  0  0  0
    2.7195    5.0838   -1.3103 O   0  0
    3.5494    4.2398   -3.2536 O   0  0
    3.9196    0.7601    0.2682 H   0  0
    3.7353    3.7956    0.6507 H   0  0
    3.8406    2.0441   -1.8931 H   0  0
    5.9010    2.8400    1.3325 H   0  0
    1.8768    1.8456   -0.4058 H   0  0
    3.8954    2.4366    2.6255 H   0  0
    6.0134   -0.0246    1.0579 H   0  0
    9.9803    3.0922   -0.5638 H   0  0
   12.4565   -1.6618    0.4780 H   0  0
   14.4168   -0.3023    0.5506 H   0  0
   13.3914    4.2946   -0.2808 H   0  0
   15.9426    0.9877    0.5696 H   0  0
   17.8987    2.5587    0.6073 H   0  0
    6.7427   -0.3819   -0.6427 H   0  0
    8.3524   -2.7073    0.9620 H   0  0
    9.4062   -4.0439    0.3916 H   0  0
    8.6014   -2.9684   -0.7984 H   0  0
   14.2547    6.2794   -0.4573 H   0  0
   18.6545    4.5879    0.4092 H   0  0
    5.9018    1.1290   -1.2614 H   0  0
    2.3848    5.7790   -1.9286 H   0  0
  1  2  1  0
  2  3  1  0
  3  4  1  0
  1  5  1  0
  2  6  1  0
  1  7  1  0
  5  8  1  0
  3  9  1  0
 10 11  1  0
 11 12  2  0
 12 13  1  0
 13 14  2  0
 14 15  1  0
 10 15  2  0
 17 18  2  0
 18 19  1  0
 16 19  2  0
 14 17  1  0
 16 15  1  0
 19 20  1  0
 21 22  2  0
 23 24  1  0
 24 25  2  0
 21 25  1  0
 22 20  1  0
 20 23  2  0
 11 26  1  0
 12 27  1  0
 13 28  1  0
 28 29  1  0
 21 30  1  0
 25 31  1  0
 26 32  1  0
  9 33  1  0
  9 34  2  0
  4 32  1  0
 32  5  1  0
  1 35  1  0
  2 36  1  0
  3 37  1  0
  5 38  1  0
  6 39  1  0
  7 40  1  0
  8 41  1  0
 10 42  1  0
 17 43  1  0
 18 44  1  0
 22 45  1  0
 23 46  1  0
 24 47  1  0
 27 48  1  0
 29 49  1  0
 29 50  1  0
 29 51  1  0
 30 52  1  0
 31 53  1  0
 32 54  1  0
 33 55  1  0
M  CHG  1  16   1
M  END
> <Name>
1_IKTMT2020

> <Clean Energy>
24.6852

$$$$
2_IKTMT2020
  SciTegic12132405553D

 51 54  0  0  0  0            999 V2000
    4.0373    1.7752    0.8431 C   0  0  1  0  0  0
    3.3541    2.9112    0.0980 C   0  0  1  0  0  0
    3.8982    2.9587   -1.3338 C   0  0  2  0  0  0
    5.3229    3.1794   -1.3185 O   0  0
    5.5389    2.0278    0.8336 C   0  0  1  0  0  0
    1.9463    2.6890    0.0759 O   0  0
    3.5604    1.7288    2.1846 O   0  0
    6.1736    0.9821    1.5613 O   0  0
    3.2591    4.0810   -2.0892 C   0  0
    9.8443    2.1502   -0.3874 C   0  0
    8.5426    1.4618   -0.4395 C   0  0
    8.5302    0.1095   -0.2276 C   0  0
    9.8088   -0.5760    0.0729 C   0  0
   10.9520    0.1004    0.1189 C   0  0
   10.9703    1.5016   -0.1224 C   0  0
   12.1510    2.1839   -0.0799 O   0  0
   12.2089   -0.5515    0.4074 C   0  0
   13.4186    0.2527    0.4344 C   0  0
   13.3576    1.5714    0.1946 C   0  0
   14.5699    2.4315    0.2116 C   0  0
   15.4541    4.6758   -0.0596 C   0  0
   14.4017    3.8611   -0.0624 C   0  0
   15.7933    1.9516    0.4652 C   0  0
   16.9478    2.8514    0.4673 C   0  0
   16.7856    4.1480    0.2174 C   0  0
    7.4410    2.3952   -0.7362 O   0  0
    7.4112   -0.7540   -0.2901 O   0  0
    9.8169   -1.9525    0.3069 O   0  0
   17.8840    4.9990    0.2203 O   0  0
    6.0223    2.0993   -0.6646 C   0  0  2  0  0  0
    2.5280    5.0486   -1.4100 O   0  0
    3.3830    4.1482   -3.3168 O   0  0
   12.2655   -1.7662    0.6268 O   0  0
    3.8247    0.8206    0.3421 H   0  0
    3.5695    3.8639    0.6019 H   0  0
    3.7213    2.0154   -1.8696 H   0  0
    5.7551    2.9870    1.3243 H   0  0
    1.7590    1.8307   -0.3783 H   0  0
    3.7561    2.5900    2.6297 H   0  0
    5.9331    0.1179    1.1689 H   0  0
    9.8812    3.1952   -0.5619 H   0  0
   14.3419   -0.2152    0.6443 H   0  0
   15.3247    5.7092   -0.2588 H   0  0
   13.4353    4.2485   -0.2642 H   0  0
   15.9400    0.9248    0.6657 H   0  0
   17.9160    2.4686    0.6686 H   0  0
    6.6158   -0.3308   -0.5271 H   0  0
    8.9040   -2.3157    0.2390 H   0  0
   18.7016    4.4806    0.4245 H   0  0
    5.8019    1.1746   -1.2006 H   0  0
    2.1789    5.7107   -2.0560 H   0  0
  1  2  1  0
  2  3  1  0
  3  4  1  0
  1  5  1  0
  2  6  1  0
  1  7  1  0
  5  8  1  0
  3  9  1  0
 10 11  1  0
 11 12  2  0
 12 13  1  0
 13 14  2  0
 14 15  1  0
 10 15  2  0
 17 18  1  0
 18 19  2  0
 16 19  1  0
 14 17  1  0
 16 15  1  0
 19 20  1  0
 21 22  2  0
 23 24  1  0
 24 25  2  0
 21 25  1  0
 22 20  1  0
 20 23  2  0
 11 26  1  0
 12 27  1  0
 13 28  1  0
 25 29  1  0
 26 30  1  0
  9 31  1  0
  9 32  2  0
  4 30  1  0
 30  5  1  0
 17 33  2  0
  1 34  1  0
  2 35  1  0
  3 36  1  0
  5 37  1  0
  6 38  1  0
  7 39  1  0
  8 40  1  0
 10 41  1  0
 18 42  1  0
 21 43  1  0
 22 44  1  0
 23 45  1  0
 24 46  1  0
 27 47  1  0
 28 48  1  0
 29 49  1  0
 30 50  1  0
 31 51  1  0
M  END
> <Name>
2_IKTMT2020

> <Clean Energy>
19.8314

$$$$
3_IKTMT2020
  SciTegic12132405553D

 34 36  0  0  0  0            999 V2000
   -4.2211    1.5954    0.0454 C   0  0
   -5.5230    0.9207    0.0486 C   0  0
   -5.5734   -0.4351    0.0719 C   0  0
   -4.2965   -1.1805    0.0934 C   0  0
   -3.1322   -0.5335    0.0898 C   0  0
   -3.0928    0.8973    0.0651 C   0  0
   -1.8927    1.5442    0.0618 O   0  0
   -1.8727   -1.2396    0.1105 C   0  0
   -0.6415   -0.4663    0.1052 C   0  0
   -0.6845    0.8750    0.0815 C   0  0
    0.5510    1.7018    0.0752 C   0  0
    1.4753    3.9460    0.0422 C   0  0
    0.4020    3.1592    0.0488 C   0  0
    1.7784    1.1681    0.0927 C   0  0
    2.9559    2.0374    0.0854 C   0  0
    2.8109    3.3596    0.0613 C   0  0
   -6.6478    1.7460    0.0267 O   0  0
   -6.7754   -1.2551    0.0782 O   0  0
   -4.3116   -2.5750    0.1176 O   0  0
    3.9312    4.1815    0.0544 O   0  0
   -1.8310   -2.4743    0.1323 O   0  0
   -8.0607   -0.6176    0.0585 C   0  0
   -4.1801    2.6546    0.0272 H   0  0
    0.2837   -0.9754    0.1202 H   0  0
    1.3597    4.9999    0.0230 H   0  0
   -0.5673    3.5893    0.0348 H   0  0
    1.9116    0.1203    0.1119 H   0  0
    3.9272    1.6120    0.0993 H   0  0
   -6.3612    2.6921    0.0121 H   0  0
   -5.2407   -2.9036    0.1172 H   0  0
    4.7486    3.6242    0.0696 H   0  0
   -8.8482   -1.3846    0.0667 H   0  0
   -8.1547   -0.0073   -0.8515 H   0  0
   -8.1666    0.0241    0.9454 H   0  0
  1  2  1  0
  2  3  2  0
  3  4  1  0
  4  5  2  0
  5  6  1  0
  1  6  2  0
  8  9  1  0
  9 10  2  0
  7 10  1  0
  5  8  1  0
  7  6  1  0
 10 11  1  0
 12 13  2  0
 14 15  1  0
 15 16  2  0
 12 16  1  0
 13 11  1  0
 11 14  2  0
  2 17  1  0
  3 18  1  0
  4 19  1  0
 16 20  1  0
  8 21  2  0
 18 22  1  0
  1 23  1  0
  9 24  1  0
 12 25  1  0
 13 26  1  0
 14 27  1  0
 15 28  1  0
 17 29  1  0
 19 30  1  0
 20 31  1  0
 22 32  1  0
 22 33  1  0
 22 34  1  0
M  END
> <Name>
3_IKTMT2020

> <Clean Energy>
1.22317

$$$$
4_IKTMT2020
  SciTegic12132405553D

 54 57  0  0  0  0            999 V2000
    4.0106    1.7971    0.7848 C   0  0  1  0  0  0
    3.3851    3.0036    0.1022 C   0  0  1  0  0  0
    3.9393    3.1052   -1.3230 C   0  0  2  0  0  0
    5.3725    3.2581   -1.2907 O   0  0
    5.5223    1.9797    0.7944 C   0  0  1  0  0  0
    1.9687    2.8488    0.0631 O   0  0
    3.5241    1.6983    2.1200 O   0  0
    6.1038    0.8664    1.4640 O   0  0
    3.3574    4.2965   -2.0166 C   0  0
    9.8044    1.9670   -0.4044 C   0  0
    8.5099    1.3504   -0.4949 C   0  0
    8.4442   -0.0026   -0.3549 C   0  0
    9.6612   -0.8084   -0.0839 C   0  0
   10.8816   -0.1783    0.0096 C   0  0
   10.9057    1.2753   -0.1707 C   0  0
   12.0690    1.9800   -0.1032 O   0  0
   12.2554   -0.7674    0.2745 C   0  0
   13.4099    0.1110    0.3206 C   0  0
   13.2843    1.4260    0.1344 C   0  0
   14.4533    2.3444    0.1769 C   0  0
   15.2212    4.6395   -0.0123 C   0  0
   14.2112    3.7733   -0.0397 C   0  0
   15.7017    1.9177    0.4029 C   0  0
   16.8093    2.8740    0.4321 C   0  0
   16.5799    4.1694    0.2344 C   0  0
    7.4492    2.3450   -0.7458 O   0  0
    7.2881   -0.8074   -0.4697 O   0  0
    9.2769   -2.2299    0.0347 O   0  0
   17.6341    5.0742    0.2629 O   0  0
    6.0172    2.1119   -0.6956 C   0  0  2  0  0  0
    2.6688    5.2582   -1.2867 O   0  0
    3.4909    4.4256   -3.2382 O   0  0
   12.4725   -1.9601    0.4578 O   0  0
   10.1694   -3.3021    0.2902 C   0  0
    3.7569    0.8830    0.2304 H   0  0
    3.6415    3.9157    0.6593 H   0  0
    3.7220    2.2024   -1.9112 H   0  0
    5.7797    2.8989    1.3388 H   0  0
    1.7445    2.0268   -0.4390 H   0  0
    3.7570    2.5232    2.6133 H   0  0
    5.8260    0.0376    1.0224 H   0  0
    9.8785    3.0177   -0.5247 H   0  0
   14.3593   -0.3122    0.5052 H   0  0
   15.0382    5.6720   -0.1699 H   0  0
   13.2247    4.1190   -0.2193 H   0  0
   15.9017    0.8927    0.5619 H   0  0
   17.7974    2.5332    0.6113 H   0  0
    6.5163   -0.3373   -0.6888 H   0  0
   18.4785    4.5903    0.4408 H   0  0
    5.7573    1.2294   -1.2828 H   0  0
    2.3544    5.9707   -1.8958 H   0  0
   10.6697   -3.1406    1.2555 H   0  0
   10.9187   -3.3547   -0.5123 H   0  0
    9.6055   -4.2449    0.3250 H   0  0
  1  2  1  0
  2  3  1  0
  3  4  1  0
  1  5  1  0
  2  6  1  0
  1  7  1  0
  5  8  1  0
  3  9  1  0
 10 11  1  0
 11 12  2  0
 12 13  1  0
 13 14  2  0
 14 15  1  0
 10 15  2  0
 17 18  1  0
 18 19  2  0
 16 19  1  0
 14 17  1  0
 16 15  1  0
 19 20  1  0
 21 22  2  0
 23 24  1  0
 24 25  2  0
 21 25  1  0
 22 20  1  0
 20 23  2  0
 11 26  1  0
 12 27  1  0
 13 28  1  0
 25 29  1  0
 26 30  1  0
  9 31  1  0
  9 32  2  0
  4 30  1  0
 30  5  1  0
 17 33  2  0
 28 34  1  0
  1 35  1  0
  2 36  1  0
  3 37  1  0
  5 38  1  0
  6 39  1  0
  7 40  1  0
  8 41  1  0
 10 42  1  0
 18 43  1  0
 21 44  1  0
 22 45  1  0
 23 46  1  0
 24 47  1  0
 27 48  1  0
 29 49  1  0
 30 50  1  0
 31 51  1  0
 34 52  1  0
 34 53  1  0
 34 54  1  0
M  END
> <Name>
4_IKTMT2020

> <Clean Energy>
39.0861

$$$$
5_IKTMT2020
  SciTegic12132405553D

 31 33  0  0  0  0            999 V2000
   -4.3206    1.6424    0.1764 C   0  0
   -5.6209    0.9740    0.1962 C   0  0
   -5.6838   -0.3585    0.1806 C   0  0
   -4.4454   -1.1443    0.1436 C   0  0
   -3.2678   -0.5191    0.1259 C   0  0
   -3.2025    0.9226    0.1428 C   0  0
   -1.9906    1.5448    0.1243 O   0  0
   -2.0233   -1.2458    0.0895 C   0  0
   -0.7783   -0.4929    0.0720 C   0  0
   -0.7958    0.8499    0.0895 C   0  0
    0.4557    1.6524    0.0724 C   0  0
    1.4237    3.8785    0.0797 C   0  0
    0.3354    3.1127    0.0936 C   0  0
    1.6722    1.0950    0.0388 C   0  0
    2.8662    1.9413    0.0236 C   0  0
    2.7472    3.2662    0.0431 C   0  0
   -6.7830    1.7358    0.2312 O   0  0
   -6.9184   -1.0097    0.1992 O   0  0
   -4.5049   -2.5350    0.1272 O   0  0
    3.8832    4.0663    0.0285 O   0  0
   -2.0044   -2.4812    0.0734 O   0  0
   -4.2687    2.7013    0.1887 H   0  0
    0.1372   -1.0186    0.0453 H   0  0
    1.3287    4.9345    0.0952 H   0  0
   -0.6251    3.5616    0.1202 H   0  0
    1.7849    0.0448    0.0230 H   0  0
    3.8288    1.4971   -0.0030 H   0  0
   -6.5454    2.6960    0.2383 H   0  0
   -7.6505   -0.3489    0.2236 H   0  0
   -5.4473   -2.8288    0.1440 H   0  0
    4.6893    3.4932    0.0037 H   0  0
  1  2  1  0
  2  3  2  0
  3  4  1  0
  4  5  2  0
  5  6  1  0
  1  6  2  0
  8  9  1  0
  9 10  2  0
  7 10  1  0
  5  8  1  0
  7  6  1  0
 10 11  1  0
 12 13  2  0
 14 15  1  0
 15 16  2  0
 12 16  1  0
 13 11  1  0
 11 14  2  0
  2 17  1  0
  3 18  1  0
  4 19  1  0
 16 20  1  0
  8 21  2  0
  1 22  1  0
  9 23  1  0
 12 24  1  0
 13 25  1  0
 14 26  1  0
 15 27  1  0
 17 28  1  0
 18 29  1  0
 19 30  1  0
 20 31  1  0
M  END
> <Name>
5_IKTMT2020

> <Clean Energy>
-4.71248

$$$$
6_IKTMT2020
  SciTegic12132405553D

 34 36  0  0  0  0            999 V2000
   -4.2361    1.6572    0.1945 C   0  0
   -5.5296    0.9930    0.2004 C   0  0
   -5.6104   -0.3387    0.1371 C   0  0
   -4.3234   -1.1545    0.0581 C   0  0
   -3.1604   -0.4940    0.0559 C   0  0
   -3.1162    0.9486    0.1259 C   0  0
   -1.9146    1.5919    0.1216 O   0  0
   -1.8915   -1.1927   -0.0167 C   0  0
   -0.6639   -0.4135   -0.0150 C   0  0
   -0.7086    0.9259    0.0526 C   0  0
    0.5259    1.7547    0.0565 C   0  0
    1.4474    3.9989    0.1397 C   0  0
    0.3754    3.2102    0.1329 C   0  0
    1.7534    1.2246   -0.0065 C   0  0
    2.9294    2.0959    0.0013 C   0  0
    2.7830    3.4164    0.0709 C   0  0
   -6.6830    1.7666    0.2733 O   0  0
   -6.8860   -0.9260    0.1463 O   0  0
   -4.2510   -2.5943   -0.0152 O   0  0
    3.9019    4.2402    0.0781 O   0  0
   -1.8375   -2.4255   -0.0792 O   0  0
   -5.4791   -3.3266   -0.0145 C   0  0
   -4.1871    2.7151    0.2453 H   0  0
    0.2621   -0.9184   -0.0677 H   0  0
    1.3306    5.0513    0.1952 H   0  0
   -0.5940    3.6375    0.1831 H   0  0
    1.8878    0.1783   -0.0622 H   0  0
    3.9007    1.6734   -0.0487 H   0  0
   -6.4345    2.7232    0.3131 H   0  0
   -7.5846   -0.2349    0.2014 H   0  0
    4.7195    3.6856    0.0261 H   0  0
   -5.2618   -4.4024   -0.0742 H   0  0
   -6.0858   -3.0279   -0.8817 H   0  0
   -6.0320   -3.1165    0.9126 H   0  0
  1  2  1  0
  2  3  2  0
  3  4  1  0
  4  5  2  0
  5  6  1  0
  1  6  2  0
  8  9  1  0
  9 10  2  0
  7 10  1  0
  5  8  1  0
  7  6  1  0
 10 11  1  0
 12 13  2  0
 14 15  1  0
 15 16  2  0
 12 16  1  0
 13 11  1  0
 11 14  2  0
  2 17  1  0
  3 18  1  0
  4 19  1  0
 16 20  1  0
  8 21  2  0
 19 22  1  0
  1 23  1  0
  9 24  1  0
 12 25  1  0
 13 26  1  0
 14 27  1  0
 15 28  1  0
 17 29  1  0
 18 30  1  0
 20 31  1  0
 22 32  1  0
 22 33  1  0
 22 34  1  0
M  END
> <Name>
6_IKTMT2020

> <Clean Energy>
-0.220944

$$$$
7_IKTMT2020
  SciTegic12132405553D

 30 32  0  0  0  0            999 V2000
   -4.4288    1.6407    0.1191 C   0  0
   -5.7321    0.9774    0.1259 C   0  0
   -5.8005   -0.3520    0.1145 C   0  0
   -4.5721   -1.1447    0.0953 C   0  0
   -3.3894   -0.5289    0.0893 C   0  0
   -3.3144    0.9136    0.1016 C   0  0
   -2.0981    1.5271    0.0953 O   0  0
   -2.1505   -1.2642    0.0705 C   0  0
   -0.9000   -0.5201    0.0650 C   0  0
   -0.9080    0.8230    0.0773 C   0  0
    0.3496    1.6164    0.0721 C   0  0
    1.3337    3.8354    0.0826 C   0  0
    0.2397    3.0775    0.0864 C   0  0
    1.5622    1.0500    0.0552 C   0  0
    2.7625    1.8875    0.0510 C   0  0
    2.6530    3.2133    0.0641 C   0  0
   -6.8959    1.7345    0.1441 O   0  0
   -4.6493   -2.5313    0.0835 O   0  0
    3.7949    4.0050    0.0601 O   0  0
   -2.1407   -2.4999    0.0592 O   0  0
   -4.3717    2.6994    0.1282 H   0  0
   -6.7443   -0.8354    0.1194 H   0  0
    0.0120   -1.0524    0.0513 H   0  0
    1.2463    4.8921    0.0930 H   0  0
   -0.7177    3.5335    0.0999 H   0  0
    1.6675   -0.0011    0.0446 H   0  0
    3.7220    1.4362    0.0375 H   0  0
   -6.6616    2.6957    0.1505 H   0  0
   -5.5990   -2.8067    0.0903 H   0  0
    4.5970    3.4260    0.0470 H   0  0
  1  2  1  0
  2  3  2  0
  3  4  1  0
  4  5  2  0
  5  6  1  0
  1  6  2  0
  8  9  1  0
  9 10  2  0
  7 10  1  0
  5  8  1  0
  7  6  1  0
 10 11  1  0
 12 13  2  0
 14 15  1  0
 15 16  2  0
 12 16  1  0
 13 11  1  0
 11 14  2  0
  2 17  1  0
  4 18  1  0
 16 19  1  0
  8 20  2  0
  1 21  1  0
  3 22  1  0
  9 23  1  0
 12 24  1  0
 13 25  1  0
 14 26  1  0
 15 27  1  0
 17 28  1  0
 18 29  1  0
 19 30  1  0
M  END
> <Name>
7_IKTMT2020

> <Clean Energy>
-4.54924

$$$$
8_IKTMT2020
  SciTegic12132405553D

 35 37  0  0  0  0            999 V2000
   -4.2115    1.5842    0.0879 C   0  0
   -5.5216    1.0044    0.1007 C   0  0
   -5.6656   -0.3168    0.0929 C   0  0
   -4.5043   -1.2242    0.0711 C   0  0
   -3.2493   -0.6638    0.0589 C   0  0
   -3.1353    0.8107    0.0682 C   0  0
   -1.9156    1.4204    0.0569 O   0  3
   -1.9382   -1.3699    0.0367 C   0  0
   -0.8116   -0.6678    0.0271 C   0  0
   -0.8410    0.8057    0.0384 C   0  0
    0.4048    1.6051    0.0280 C   0  0
    1.3837    3.8242    0.0316 C   0  0
    0.2910    3.0648    0.0402 C   0  0
    1.6164    1.0396    0.0081 C   0  0
    2.8157    1.8786   -0.0014 C   0  0
    2.7039    3.2043    0.0098 C   0  0
   -6.6354    1.8363    0.1213 O   0  0
   -6.9447   -0.8763    0.1054 O   0  0
   -4.9293   -2.6395    0.0663 O   0  0
   -4.0240   -3.7472    0.0463 C   0  0
    1.2669    5.2083    0.0432 O   0  0
    3.8441    3.9982    0.0008 O   0  0
   -4.1016    2.6388    0.0943 H   0  0
   -1.8733   -2.4052    0.0282 H   0  0
    0.1130   -1.1808    0.0113 H   0  0
   -0.6675    3.5186    0.0560 H   0  0
    1.7213   -0.0111   -0.0010 H   0  0
    3.7758    1.4287   -0.0172 H   0  0
   -6.3399    2.7803    0.1244 H   0  0
   -7.6282   -0.1660    0.1196 H   0  0
   -4.5956   -4.6861    0.0469 H   0  0
   -3.3799   -3.7107    0.9367 H   0  0
   -3.4033   -3.6975   -0.8599 H   0  0
    0.3096    5.4577    0.0575 H   0  0
    4.6472    3.4208   -0.0139 H   0  0
  1  2  1  0
  2  3  2  0
  3  4  1  0
  4  5  2  0
  5  6  1  0
  1  6  2  0
  8  9  2  0
  9 10  1  0
  7 10  2  0
  5  8  1  0
  7  6  1  0
 10 11  1  0
 12 13  2  0
 14 15  1  0
 15 16  2  0
 12 16  1  0
 13 11  1  0
 11 14  2  0
  2 17  1  0
  3 18  1  0
  4 19  1  0
 19 20  1  0
 12 21  1  0
 16 22  1  0
  1 23  1  0
  8 24  1  0
  9 25  1  0
 13 26  1  0
 14 27  1  0
 15 28  1  0
 17 29  1  0
 18 30  1  0
 20 31  1  0
 20 32  1  0
 20 33  1  0
 21 34  1  0
 22 35  1  0
M  CHG  1   7   1
M  END
> <Name>
8_IKTMT2020

> <Clean Energy>
8.8591

$$$$
9_IKTMT2020
  SciTegic12132405553D

 38 40  0  0  0  0            999 V2000
   -4.3343    1.5183    0.0778 C   0  0
   -5.6433    0.9364    0.1008 C   0  0
   -5.7851   -0.3850    0.1043 C   0  0
   -4.6223   -1.2907    0.0850 C   0  0
   -3.3684   -0.7283    0.0629 C   0  0
   -3.2569    0.7464    0.0598 C   0  0
   -2.0383    1.3581    0.0383 O   0  3
   -2.0562   -1.4323    0.0408 C   0  0
   -0.9309   -0.7284    0.0209 C   0  0
   -0.9627    0.7451    0.0202 C   0  0
    0.2818    1.5469   -0.0019 C   0  0
    1.2551    3.7605   -0.0205 C   0  0
    0.1663    2.9975   -0.0011 C   0  0
    1.4929    0.9853   -0.0223 C   0  0
    2.6980    1.8193   -0.0438 C   0  0
    2.5901    3.1614   -0.0430 C   0  0
   -6.7585    1.7666    0.1194 O   0  0
   -7.0632   -0.9466    0.1268 O   0  0
   -5.0450   -2.7067    0.0934 O   0  0
   -4.1379   -3.8130    0.0787 C   0  0
    1.1244    5.1434   -0.0193 O   0  0
    3.7067    4.0695   -0.0630 O   0  0
    5.0199    3.4792   -0.0851 C   0  0
   -4.2262    2.5730    0.0751 H   0  0
   -1.9896   -2.4675    0.0405 H   0  0
   -0.0055   -1.2400    0.0053 H   0  0
   -0.7934    3.4487    0.0151 H   0  0
    1.5968   -0.0654   -0.0233 H   0  0
    3.6372    1.3360   -0.0596 H   0  0
   -6.4645    2.7111    0.1136 H   0  0
   -7.7478   -0.2373    0.1381 H   0  0
   -4.7079   -4.7528    0.0893 H   0  0
   -3.4901   -3.7682    0.9660 H   0  0
   -3.5211   -3.7696   -0.8306 H   0  0
    0.1649    5.3834   -0.0030 H   0  0
    5.7768    4.2764   -0.0988 H   0  0
    5.1300    2.8567   -0.9856 H   0  0
    5.1610    2.8581    0.8120 H   0  0
  1  2  1  0
  2  3  2  0
  3  4  1  0
  4  5  2  0
  5  6  1  0
  1  6  2  0
  8  9  2  0
  9 10  1  0
  7 10  2  0
  5  8  1  0
  7  6  1  0
 10 11  1  0
 12 13  2  0
 14 15  1  0
 15 16  2  0
 12 16  1  0
 13 11  1  0
 11 14  2  0
  2 17  1  0
  3 18  1  0
  4 19  1  0
 19 20  1  0
 12 21  1  0
 16 22  1  0
 22 23  1  0
  1 24  1  0
  8 25  1  0
  9 26  1  0
 13 27  1  0
 14 28  1  0
 15 29  1  0
 17 30  1  0
 18 31  1  0
 20 32  1  0
 20 33  1  0
 20 34  1  0
 21 35  1  0
 23 36  1  0
 23 37  1  0
 23 38  1  0
M  CHG  1   7   1
M  END
> <Name>
9_IKTMT2020

> <Clean Energy>
11.7079

$$$$
10_IKTMT2020
  SciTegic12132405553D

 37 39  0  0  0  0            999 V2000
   -4.3079    1.5735    0.1736 C   0  0
   -5.6121    0.9808    0.1921 C   0  0
   -5.7442   -0.3407    0.1423 C   0  0
   -4.5753   -1.2355    0.0673 C   0  0
   -3.3260   -0.6628    0.0498 C   0  0
   -3.2253    0.8116    0.1069 C   0  0
   -2.0116    1.4333    0.0926 O   0  3
   -2.0092   -1.3549   -0.0217 C   0  0
   -0.8895   -0.6419   -0.0292 C   0  0
   -0.9319    0.8302    0.0325 C   0  0
    0.3065    1.6419    0.0252 C   0  0
    1.2639    3.8624    0.0848 C   0  0
    0.1808    3.0909    0.0887 C   0  0
    1.5210    1.0909   -0.0372 C   0  0
    2.7199    1.9341   -0.0419 C   0  0
    2.6031    3.2742    0.0168 C   0  0
   -6.7328    1.8006    0.2624 O   0  0
   -7.0176   -0.9129    0.1606 O   0  0
   -4.9875   -2.6539    0.0227 O   0  0
   -4.0727   -3.7514   -0.0522 C   0  0
    3.7138    4.1902    0.0180 O   0  0
    5.0304    3.6106   -0.0489 C   0  0
   -4.2075    2.6282    0.2136 H   0  0
   -1.9351   -2.3886   -0.0665 H   0  0
    0.0392   -1.1451   -0.0803 H   0  0
    1.1566    4.9163    0.1315 H   0  0
   -0.7816    3.5338    0.1384 H   0  0
    1.6322    0.0420   -0.0838 H   0  0
    3.6620    1.4588   -0.0923 H   0  0
   -6.4459    2.7468    0.2918 H   0  0
   -7.7072   -0.2101    0.2120 H   0  0
   -4.6356   -4.6953   -0.0725 H   0  0
   -3.4116   -3.7387    0.8263 H   0  0
   -3.4704   -3.6652   -0.9681 H   0  0
    5.7818    4.4129   -0.0406 H   0  0
    5.1305    3.0270   -0.9762 H   0  0
    5.1893    2.9534    0.8191 H   0  0
  1  2  1  0
  2  3  2  0
  3  4  1  0
  4  5  2  0
  5  6  1  0
  1  6  2  0
  8  9  2  0
  9 10  1  0
  7 10  2  0
  5  8  1  0
  7  6  1  0
 10 11  1  0
 12 13  2  0
 14 15  1  0
 15 16  2  0
 12 16  1  0
 13 11  1  0
 11 14  2  0
  2 17  1  0
  3 18  1  0
  4 19  1  0
 19 20  1  0
 16 21  1  0
 21 22  1  0
  1 23  1  0
  8 24  1  0
  9 25  1  0
 12 26  1  0
 13 27  1  0
 14 28  1  0
 15 29  1  0
 17 30  1  0
 18 31  1  0
 20 32  1  0
 20 33  1  0
 20 34  1  0
 22 35  1  0
 22 36  1  0
 22 37  1  0
M  CHG  1   7   1
M  END
> <Name>
10_IKTMT2020

> <Clean Energy>
12.1904

$$$$

  SciTegic12132405553D

 18 17  0  0  0  0            999 V2000
    0.3303   -5.3628    8.4904 C   0  0
   -0.8575   -4.5789    7.8937 C   0  0
   -0.4512   -3.1521    7.4456 C   0  0
   -1.6434   -2.3634    6.8459 C   0  0
   -1.2336   -0.9369    6.3987 C   0  0
   -2.4202   -0.1403    5.7974 C   0  0
   -2.0046    1.2861    5.3520 C   0  0
   -3.1881    2.0884    4.7496 C   0  0
   -2.7779    3.5158    4.3027 C   0  0
   -3.9677    4.3110    3.7006 C   0  0
   -3.5615    5.7373    3.2495 C   0  0
   -4.7479    6.5335    2.6398 C   0  0
   -4.3156    7.9520    2.1872 C   0  0
   -5.4717    8.7822    1.5730 C   0  0
   -4.9908   10.1896    1.1410 C   0  0
   -6.1032   11.0348    0.6870 C   0  0
   -6.5685   10.9099   -0.4691 O   0  0
   -6.6395   11.9563    1.5193 O   0  0
  1  2  1  0
  2  3  1  0
  3  4  1  0
  4  5  1  0
  5  6  1  0
  6  7  1  0
  7  8  1  0
  8  9  1  0
  9 10  1  0
 10 11  1  0
 11 12  1  0
 12 13  1  0
 13 14  1  0
 14 15  1  0
 15 16  1  0
 16 18  1  0
 16 17  2  0
M  END
$$$$
TBS2010 - IntermediÃ¡rio - (2)
  SciTegic12132405553D

 60 61  0  0  0  0            999 V2000
  -11.7426    1.4726   -1.6868 O   0  0
  -11.5504    1.5805   -0.2993 C   0  0
  -10.0797    1.3063    0.0170 C   0  0  1  0  0  0
   -9.3184    2.2654   -0.7039 O   0  0
   -7.8969    2.2265   -0.4881 C   0  0  1  0  0  0
   -7.3064    3.2989   -1.2964 O   0  0
   -7.6445    2.5157    1.0468 C   0  0  2  0  0  0
   -6.1932    2.5964    1.2005 O   0  0
   -8.3626    1.3360    1.9511 C   0  0  1  0  0  0
   -8.2117    1.6191    3.4352 O   0  0
   -9.8824    1.4480    1.5534 C   0  0  2  0  0  0
  -10.7732    0.4807    2.2156 O   0  0
   -5.6331    3.2714    2.3444 C   0  0
   -4.4030    3.2884    2.4459 O   0  0
   -6.4501    4.0705    3.3525 C   0  0
   -8.4503    0.6269    4.5195 C   0  0
   -8.4722    1.0378    5.6922 O   0  0
   -8.5924   -0.8857    4.3329 C   0  0
  -10.6985   -0.9080    1.8038 C   0  0
   -9.9135   -1.3459    0.9417 O   0  0
  -11.6844   -1.8319    2.4054 C   0  0
  -13.0962    1.7146   -1.9514 C   0  0
  -13.5860    1.6997   -3.3637 C   0  0
  -13.8789    1.9406   -1.0168 O   0  0
   -7.2884    3.1887   -2.7330 C   0  0
   -7.6649    1.9434   -3.5516 C   0  0
   -6.8761    4.2856   -3.3692 C   0  0
   -6.8010    4.3374   -4.7981 C   0  0
   -7.1280    3.2860   -5.5276 C   0  0
   -7.5692    2.0378   -4.8972 C   0  0
   -8.0693    0.6908   -2.8828 O   0  0
   -8.2130   -0.4819   -3.7968 C   0  0
   -7.0350    3.3912   -6.9728 C   0  0
   -7.3285    2.4277   -7.6857 O   0  0
  -11.8131    2.5947    0.0256 H   0  0
  -12.1861    0.8576    0.2183 H   0  0
   -9.7910    0.2991   -0.3116 H   0  0
   -7.4606    1.2520   -0.7812 H   0  0
   -8.0895    3.4919    1.2724 H   0  0
   -7.9354    0.3614    1.6905 H   0  0
  -10.1970    2.4583    1.8374 H   0  0
   -7.0107    3.3713    3.9807 H   0  0
   -5.7866    4.6863    3.9868 H   0  0
   -7.1914    4.6896    2.8290 H   0  0
   -7.8624   -1.3937    4.9865 H   0  0
   -9.5873   -1.1953    4.6962 H   0  0
   -8.4525   -1.1845    3.2863 H   0  0
  -11.1493   -2.5272    3.0755 H   0  0
  -12.4352   -1.2665    2.9763 H   0  0
  -12.1511   -2.4450    1.6126 H   0  0
  -13.1168    0.8671   -3.9048 H   0  0
  -14.6862    1.6453   -3.3977 H   0  0
  -13.2515    2.6271   -3.8534 H   0  0
   -6.6072    5.1414   -2.8138 H   0  0
   -6.4824    5.2237   -5.2747 H   0  0
   -7.8062    1.2272   -5.5265 H   0  0
   -8.4855   -1.3788   -3.2287 H   0  0
   -8.9860   -0.2798   -4.5456 H   0  0
   -7.2576   -0.6626   -4.3030 H   0  0
   -6.7129    4.3003   -7.4195 H   0  0
  1  2  1  0
  3  2  1  0
  3  4  1  0
  5  4  1  0
  5  6  1  0
  7  5  1  0
  7  8  1  0
  7  9  1  0
  9 10  1  0
  9 11  1  0
 11  3  1  0
 11 12  1  0
  8 13  1  0
 13 15  1  0
 13 14  2  0
 10 16  1  0
 16 18  1  0
 16 17  2  0
 12 19  1  0
 19 21  1  0
 19 20  2  0
  1 22  1  0
 22 23  1  0
 22 24  2  0
  6 25  1  0
 27 28  1  0
 28 29  2  0
 29 30  1  0
 26 30  2  0
 26 25  1  0
 25 27  2  0
 26 31  1  0
 31 32  1  0
 29 33  1  0
 33 34  2  0
  2 35  1  0
  2 36  1  0
  3 37  1  0
  5 38  1  0
  7 39  1  0
  9 40  1  0
 11 41  1  0
 15 42  1  0
 15 43  1  0
 15 44  1  0
 18 45  1  0
 18 46  1  0
 18 47  1  0
 21 48  1  0
 21 49  1  0
 21 50  1  0
 23 51  1  0
 23 52  1  0
 23 53  1  0
 27 54  1  0
 28 55  1  0
 30 56  1  0
 32 57  1  0
 32 58  1  0
 32 59  1  0
 33 60  1  0
M  END
> <Name>
TBS2010 - IntermediÃ¡rio - (2)

> <Clean Energy>
48.5359725952148

$$$$
TBS2010 - Intermediário - (3)
  SciTegic12132405553D

 40 41  0  0  0  0            999 V2000
   12.5044    8.2790   -1.5895 O   0  0
   11.7276    8.6904   -0.4698 C   0  0
   11.9853    7.7683    0.7497 C   0  0  1  0  0  0
   13.3908    7.8509    1.0665 O   0  0
   13.8309    6.9833    2.1404 C   0  0  1  0  0  0
   15.2549    7.1388    2.3273 O   0  0
   13.0869    7.3437    3.4544 C   0  0  2  0  0  0
   13.4733    6.4583    4.5049 O   0  0
   11.5518    7.2849    3.2257 C   0  0  1  0  0  0
   10.8617    7.7132    4.3967 O   0  0
   11.1413    8.1549    2.0037 C   0  0  2  0  0  0
    9.7474    8.0017    1.7407 O   0  0
   15.9711    6.7610    1.2202 C   0  0
   16.3618    5.4155    1.0456 C   0  0
   16.3074    7.7175    0.2415 C   0  0
   16.9793    7.3294   -0.9314 C   0  0
   17.3421    5.9779   -1.1406 C   0  0
   17.0152    5.0265   -0.1426 C   0  0
   16.0825    4.4843    2.0109 O   0  0
   17.1295    4.3690    2.9926 C   0  0
   18.0281    5.6124   -2.3235 C   0  0
   18.3975    4.4394   -2.5542 O   0  0
   12.5300    7.3200   -1.6263 H   0  0
   12.0963    9.6859   -0.2226 H   0  0
   10.6919    8.5545   -0.7813 H   0  0
   11.7594    6.7344    0.4887 H   0  0
   13.6528    5.9558    1.8231 H   0  0
   13.3905    8.3231    3.8240 H   0  0
   13.3661    5.5499    4.2135 H   0  0
   11.2222    6.2547    3.0909 H   0  0
   10.5686    6.9462    4.8940 H   0  0
   11.2462    9.2168    2.2259 H   0  0
    9.2689    7.9491    2.5713 H   0  0
   16.0461    8.7648    0.3928 H   0  0
   17.2204    8.0809   -1.6831 H   0  0
   17.2708    3.9774   -0.2914 H   0  0
   16.6972    4.4166    3.9921 H   0  0
   17.6444    3.4169    2.8644 H   0  0
   17.8393    5.1861    2.8644 H   0  0
   18.2961    6.2957   -3.1293 H   0  0
  1  2  1  0
  3  2  1  0
  3  4  1  0
  4  5  1  0
  5  6  1  0
  5  7  1  0
  7  8  1  0
  7  9  1  0
  9 10  1  0
  9 11  1  0
  3 11  1  0
 11 12  1  0
  6 13  1  0
 15 16  1  0
 16 17  2  0
 17 18  1  0
 14 18  2  0
 14 13  1  0
 13 15  2  0
 14 19  1  0
 19 20  1  0
 17 21  1  0
 21 22  2  0
  1 23  1  0
  2 24  1  0
  2 25  1  0
  3 26  1  0
  5 27  1  0
  7 28  1  0
  8 29  1  0
  9 30  1  0
 10 31  1  0
 11 32  1  0
 12 33  1  0
 15 34  1  0
 16 35  1  0
 18 36  1  0
 20 37  1  0
 20 38  1  0
 20 39  1  0
 21 40  1  0
M  END
> <Name>
TBS2010 - Intermediário - (3)

$$$$
TBS2010 - Intermediário - (5)
  SciTegic12132405553D

 56 57  0  0  0  0            999 V2000
   -2.6913    3.8274   -4.6968 O   0  0
   -3.2574    4.0138   -3.3949 C   0  0
   -3.0073    2.7781   -2.4842 C   0  0  1  0  0  0
   -1.7397    2.9666   -1.8171 O   0  0
   -1.3454    1.8977   -0.9264 C   0  0  1  0  0  0
   -0.0524    2.1830   -0.3513 O   0  0
   -2.3782    1.7799    0.2267 C   0  0  2  0  0  0
   -2.0153    0.6769    1.0778 O   0  0
   -3.7958    1.5246   -0.3518 C   0  0  1  0  0  0
   -4.7400    1.5865    0.7329 O   0  0
   -4.1576    2.5775   -1.4442 C   0  0  2  0  0  0
   -5.4169    2.2719   -2.0785 O   0  0
   -1.8647    0.6202    2.4351 C   0  0
   -1.4407    0.2340    3.5480 O   0  0
   -2.2740    1.6871    3.3677 C   0  0
   -6.0396    1.1684    0.7373 C   0  0
   -6.9032    1.9726    1.1542 O   0  0
   -6.4550   -0.1985    0.3770 C   0  0
   -5.7675    1.1887   -2.8400 C   0  0
   -4.9630    0.2534   -3.0601 O   0  0
   -7.1133    1.1038   -3.4243 C   0  0
   -2.8021    4.7117   -5.7318 C   0  0
   -2.2849    4.3109   -7.0444 C   0  0
   -3.3489    5.8305   -5.5855 O   0  0
    0.9752    2.1727   -1.2579 C   0  0
    1.3377    3.3544   -1.9365 C   0  0
    1.6964    0.9860   -1.4938 C   0  0
    2.7553    0.9768   -2.4179 C   0  0
    3.1082    2.1575   -3.0973 C   0  0
    2.4020    3.3637   -2.8723 C   0  0
    2.7663    4.5381   -3.5763 C   0  0
    2.1603    5.6250   -3.4376 O   0  0
   -2.7113    4.8566   -2.9711 H   0  0
   -4.3312    4.0906   -3.5657 H   0  0
   -2.9086    1.8683   -3.0763 H   0  0
   -1.2479    0.9989   -1.5354 H   0  0
   -2.3624    2.6685    0.8577 H   0  0
   -3.8776    0.5213   -0.7700 H   0  0
   -4.3663    3.5333   -0.9638 H   0  0
   -2.1421    1.3433    4.3936 H   0  0
   -1.6602    2.5720    3.1993 H   0  0
   -3.3221    1.9345    3.1993 H   0  0
   -6.6305   -0.7760    1.2846 H   0  0
   -7.3724   -0.1566   -0.2101 H   0  0
   -5.6693   -0.6741   -0.2101 H   0  0
   -7.8539    1.0571   -2.6259 H   0  0
   -7.2982    1.9839   -4.0403 H   0  0
   -7.1861    0.2075   -4.0403 H   0  0
   -2.2597    3.2230   -7.1083 H   0  0
   -2.9333    4.7058   -7.8265 H   0  0
   -1.2773    4.7058   -7.1740 H   0  0
    0.7875    4.2735   -1.7348 H   0  0
    1.4345    0.0725   -0.9598 H   0  0
    3.3030    0.0537   -2.6077 H   0  0
    3.9370    2.1376   -3.8050 H   0  0
    3.5873    4.6122   -4.2894 H   0  0
  1  2  1  0
  3  2  1  0
  3  4  1  0
  5  4  1  0
  5  6  1  0
  7  5  1  0
  7  8  1  0
  7  9  1  0
  9 10  1  0
  9 11  1  0
 11  3  1  0
 11 12  1  0
  8 13  1  0
 13 15  1  0
 13 14  2  0
 10 16  1  0
 16 18  1  0
 16 17  2  0
 12 19  1  0
 19 21  1  0
 19 20  2  0
  1 22  1  0
 22 23  1  0
 22 24  2  0
  6 25  1  0
 27 28  1  0
 28 29  2  0
 29 30  1  0
 26 30  2  0
 26 25  1  0
 25 27  2  0
 30 31  1  0
 31 32  2  0
  2 33  1  0
  2 34  1  0
  3 35  1  0
  5 36  1  0
  7 37  1  0
  9 38  1  0
 11 39  1  0
 15 40  1  0
 15 41  1  0
 15 42  1  0
 18 43  1  0
 18 44  1  0
 18 45  1  0
 21 46  1  0
 21 47  1  0
 21 48  1  0
 23 49  1  0
 23 50  1  0
 23 51  1  0
 26 52  1  0
 27 53  1  0
 28 54  1  0
 29 55  1  0
 31 56  1  0
M  END
> <Name>
TBS2010 - Intermediário - (5)

$$$$
TBS2010 - Intermediário - (6)
  SciTegic12132405553D

 36 37  0  0  0  0            999 V2000
   -1.4478    2.0112   -4.3065 O   0  0
   -2.8567    2.2050   -4.2667 C   0  0
   -3.5583    1.0289   -3.5418 C   0  0  1  0  0  0
   -3.0386    0.9518   -2.1963 O   0  0
   -3.5416   -0.1592   -1.4089 C   0  0  1  0  0  0
   -2.9291   -0.1669   -0.1004 O   0  0
   -5.0799   -0.0383   -1.2491 C   0  0  2  0  0  0
   -5.5938   -1.1471   -0.5123 O   0  0
   -5.7439    0.0392   -2.6509 C   0  0  1  0  0  0
   -7.1498    0.2392   -2.5188 O   0  0
   -5.1092    1.1791   -3.4978 C   0  0  2  0  0  0
   -5.6599    1.1662   -4.8125 O   0  0
   -1.5701   -0.3100   -0.1691 C   0  0
   -0.7457    0.8310   -0.2562 C   0  0
   -0.9927   -1.5938   -0.1756 C   0  0
    0.3977   -1.7323   -0.3209 C   0  0
    1.2152   -0.5926   -0.4435 C   0  0
    0.6562    0.7077   -0.4108 C   0  0
    1.4909    1.8453   -0.5529 C   0  0
    1.0399    3.0141   -0.5641 O   0  0
   -1.1058    1.9641   -3.4107 H   0  0
   -2.9994    3.1031   -3.6658 H   0  0
   -3.1711    2.1919   -5.3103 H   0  0
   -3.3110    0.0916   -4.0402 H   0  0
   -3.2267   -1.0712   -1.9161 H   0  0
   -5.3486    0.8206   -0.6342 H   0  0
   -5.5125   -0.9717    0.4280 H   0  0
   -5.6630   -0.9156   -3.1705 H   0  0
   -7.3822    0.2723   -1.5880 H   0  0
   -5.3844    2.1608   -3.1123 H   0  0
   -5.7804    0.2583   -5.1001 H   0  0
   -1.1980    1.8214   -0.2035 H   0  0
   -1.6205   -2.4784   -0.0684 H   0  0
    0.8435   -2.7269   -0.3387 H   0  0
    2.2911   -0.7180   -0.5649 H   0  0
    2.5750    1.8190   -0.6632 H   0  0
  1  2  1  0
  3  2  1  0
  3  4  1  0
  4  5  1  0
  5  6  1  0
  5  7  1  0
  7  8  1  0
  7  9  1  0
  9 10  1  0
  9 11  1  0
  3 11  1  0
 11 12  1  0
  6 13  1  0
 15 16  1  0
 16 17  2  0
 17 18  1  0
 14 18  2  0
 14 13  1  0
 13 15  2  0
 18 19  1  0
 19 20  2  0
  1 21  1  0
  2 22  1  0
  2 23  1  0
  3 24  1  0
  5 25  1  0
  7 26  1  0
  8 27  1  0
  9 28  1  0
 10 29  1  0
 11 30  1  0
 12 31  1  0
 14 32  1  0
 15 33  1  0
 16 34  1  0
 17 35  1  0
 19 36  1  0
M  END
> <Name>
TBS2010 - Intermediário - (6)

$$$$
TBS2010 - Intermediário - (8)
  SciTegic12132405553D

 22 22  0  0  0  0            999 V2000
   -3.5000    2.7067    0.0000 C   0  0
   -4.8337    1.9367    0.0000 C   0  0
   -4.8337    0.3966    0.0000 C   0  0
   -3.5000   -0.3734    0.0000 C   0  0
   -2.1663    0.3966    0.0000 C   0  0
   -2.1663    1.9367    0.0000 C   0  0
   -6.1673    2.7067    0.0000 C   0  0
   -6.1673    4.2467    0.0000 O   0  0
   -0.8326    2.7067    0.0000 O   0  0
    0.5010    1.9367    0.0000 C   0  0
    1.8347    2.7067    0.0000 C   0  0
    3.1684    1.9366    0.0000 C   0  0
   -3.5000    4.2467    0.0000 H   0  0
   -6.1674   -0.3733    0.0000 H   0  0
   -3.5000   -1.9134    0.0000 H   0  0
   -0.8326   -0.3733    0.0000 H   0  0
   -7.5010    1.9367    0.0000 H   0  0
   -0.2220    0.5769    0.0000 H   0  0
    1.2240    0.5769    0.0000 H   0  0
    1.8347    4.2467    0.0000 H   0  0
    3.1684    0.3966    0.0000 H   0  0
    4.5021    2.7066    0.0000 H   0  0
  1  2  1  0
  2  3  2  0
  3  4  1  0
  4  5  2  0
  5  6  1  0
  1  6  2  0
  2  7  1  0
  6  9  1  0
  9 10  1  0
 10 11  1  0
 11 12  2  0
  7  8  2  0
  1 13  1  0
  3 14  1  0
  4 15  1  0
  5 16  1  0
  7 17  1  0
 10 18  1  0
 10 19  1  0
 11 20  1  0
 12 21  1  0
 12 22  1  0
M  END
> <Name>
TBS2010 - Intermediário - (8)

$$$$
TBS2010 - Intermediário - (9)
  SciTegic12132405553D

 27 27  0  0  0  0            999 V2000
   -3.5000    2.7067    0.0000 C   0  0
   -4.8337    1.9367    0.0000 C   0  0
   -4.8337    0.3966    0.0000 C   0  0
   -3.5000   -0.3734    0.0000 C   0  0
   -2.1663    0.3966    0.0000 C   0  0
   -2.1663    1.9367    0.0000 C   0  0
   -6.1673    2.7067    0.0000 C   0  0
   -0.8326    2.7067    0.0000 O   0  0
    0.5010    1.9367    0.0000 C   0  0
    1.8347    2.7067    0.0000 C   0  0
    3.1684    1.9366    0.0000 C   0  0
   -7.5010    1.9367    0.0000 C   0  0
   -8.8347    2.7067    0.0000 C   0  0
   -8.8347    4.2467    0.0000 O   0  0
  -10.1684    1.9367    0.0000 O   0  0
   -3.5000    4.2467    0.0000 H   0  0
   -6.1674   -0.3733    0.0000 H   0  0
   -3.5000   -1.9134    0.0000 H   0  0
   -0.8326   -0.3733    0.0000 H   0  0
   -6.1673    4.2467    0.0000 H   0  0
   -0.2220    0.5769    0.0000 H   0  0
    1.2240    0.5769    0.0000 H   0  0
    1.8347    4.2467    0.0000 H   0  0
    3.1684    0.3966    0.0000 H   0  0
    4.5021    2.7066    0.0000 H   0  0
   -7.5010    0.3967    0.0000 H   0  0
  -11.5021    2.7067    0.0000 H   0  0
  1  2  1  0
  2  3  2  0
  3  4  1  0
  4  5  2  0
  5  6  1  0
  1  6  2  0
  2  7  1  0
  6  8  1  0
  8  9  1  0
  9 10  1  0
 10 11  2  0
 12 13  1  0
 13 15  1  0
 13 14  2  0
  7 12  2  0
  1 16  1  0
  3 17  1  0
  4 18  1  0
  5 19  1  0
  7 20  1  0
  9 21  1  0
  9 22  1  0
 10 23  1  0
 11 24  1  0
 11 25  1  0
 12 26  1  0
 15 27  1  0
M  END
> <Name>
TBS2010 - Intermediário - (9)

$$$$
TBS2010 - Intermediário - (10)
  SciTegic12132405553D

 26 26  0  0  0  0            999 V2000
   -3.5000    2.7067    0.0000 C   0  0
   -4.8337    1.9367    0.0000 C   0  0
   -4.8337    0.3966    0.0000 C   0  0
   -3.5000   -0.3734    0.0000 C   0  0
   -2.1663    0.3966    0.0000 C   0  0
   -2.1663    1.9367    0.0000 C   0  0
   -6.1673    2.7067    0.0000 C   0  0
   -0.8326    2.7067    0.0000 O   0  0
    0.5010    1.9367    0.0000 C   0  0
    1.8347    2.7067    0.0000 C   0  0
    3.1684    1.9366    0.0000 C   0  0
   -7.5010    1.9367    0.0000 C   0  0
   -8.8347    2.7067    0.0000 C   0  0
   -8.8347    4.2467    0.0000 O   0  0
  -10.1684    1.9367    0.0000 Cl  0  0
   -3.5000    4.2467    0.0000 H   0  0
   -6.1674   -0.3733    0.0000 H   0  0
   -3.5000   -1.9134    0.0000 H   0  0
   -0.8326   -0.3733    0.0000 H   0  0
   -6.1673    4.2467    0.0000 H   0  0
   -0.2220    0.5769    0.0000 H   0  0
    1.2240    0.5769    0.0000 H   0  0
    1.8347    4.2467    0.0000 H   0  0
    3.1684    0.3966    0.0000 H   0  0
    4.5021    2.7066    0.0000 H   0  0
   -7.5010    0.3967    0.0000 H   0  0
  1  2  1  0
  2  3  2  0
  3  4  1  0
  4  5  2  0
  5  6  1  0
  1  6  2  0
  2  7  1  0
  6  8  1  0
  8  9  1  0
  9 10  1  0
 10 11  2  0
 12 13  1  0
 13 15  1  0
 13 14  2  0
  7 12  2  0
  1 16  1  0
  3 17  1  0
  4 18  1  0
  5 19  1  0
  7 20  1  0
  9 21  1  0
  9 22  1  0
 10 23  1  0
 11 24  1  0
 11 25  1  0
 12 26  1  0
M  END
> <Name>
TBS2010 - Intermediário - (10)

$$$$
TBS2010 - Intermediário - (11)
  SciTegic12132405553D

 41 42  0  0  0  0            999 V2000
   -3.4914    1.1599    0.0000 C   0  0
   -4.8114    1.9531    0.0000 C   0  0
   -4.7846    3.4928    0.0000 C   0  0
   -3.4377    4.2394    0.0000 C   0  0
   -2.1176    3.4463    0.0000 C   0  0
   -2.1445    1.9065    0.0000 C   0  0
   -6.1584    1.2065    0.0000 C   0  0
   -0.8245    1.1134    0.0000 O   0  0
    0.5225    1.8600    0.0000 C   0  0
    1.8425    1.0668    0.0000 C   0  0
    3.1894    1.8134    0.0000 C   0  0
   -7.4784    1.9996    0.0000 C   0  0
   -8.8253    1.2530    0.0000 C   0  0
   -8.8522   -0.2868    0.0000 O   0  0
  -10.1453    2.0462    0.0000 N   0  0
  -11.4923    1.2996    0.0000 C   0  0
  -12.8123    2.0927    0.0000 C   0  0
  -14.1592    1.3461    0.0000 C   0  0
  -14.1861   -0.1937    0.0000 C   0  0
  -12.8661   -0.9868    0.0000 C   0  0
  -11.5191   -0.2402    0.0000 C   0  0
  -15.4793    2.1393    0.0000 C   0  0
  -16.8262    1.3927    0.0000 O   0  0
  -15.4524    3.6790    0.0000 O   0  0
   -3.5183   -0.3799    0.0000 H   0  0
   -6.1046    4.2860    0.0000 H   0  0
   -3.4108    5.7792    0.0000 H   0  0
   -0.7707    4.1929    0.0000 H   0  0
   -6.1852   -0.3333    0.0000 H   0  0
   -0.1767    3.2321    0.0000 H   0  0
    1.2691    3.2069    0.0000 H   0  0
    1.8156   -0.4730    0.0000 H   0  0
    4.5095    1.0202    0.0000 H   0  0
    3.2163    3.3532    0.0000 H   0  0
   -7.4515    3.5394    0.0000 H   0  0
  -10.1185    3.5859    0.0000 H   0  0
  -12.7854    3.6325    0.0000 H   0  0
  -15.5330   -0.9403    0.0000 H   0  0
  -12.8929   -2.5266    0.0000 H   0  0
  -10.1991   -1.0334    0.0000 H   0  0
  -14.1055    4.4256    0.0000 H   0  0
  1  2  2  0
  2  3  1  0
  3  4  2  0
  4  5  1  0
  5  6  2  0
  1  6  1  0
  2  7  1  0
  6  8  1  0
  8  9  1  0
  9 10  1  0
 10 11  2  0
 12 13  1  0
 13 15  1  0
 13 14  2  0
  7 12  2  0
 15 16  1  0
 17 18  2  0
 18 19  1  0
 19 20  2  0
 20 21  1  0
 21 16  2  0
 17 16  1  0
 18 22  1  0
 22 24  1  0
 22 23  2  0
  1 25  1  0
  3 26  1  0
  4 27  1  0
  5 28  1  0
  7 29  1  0
  9 30  1  0
  9 31  1  0
 10 32  1  0
 11 33  1  0
 11 34  1  0
 12 35  1  0
 15 36  1  0
 17 37  1  0
 19 38  1  0
 20 39  1  0
 21 40  1  0
 24 41  1  0
M  END
> <Name>
TBS2010 - Intermediário - (11)

$$$$
TBS2010 - Intermediário - (18a)
  SciTegic12132405553D

 89 94  0  0  0  0            999 V2000
    6.5126    9.7788   -2.1593 O   0  0
    7.9441    9.9555   -2.2609 C   0  0
    8.6786    8.9066   -1.3911 C   0  0  1  0  0  0
   10.1090    9.0975   -1.3804 O   0  0
   10.8266    8.1015   -0.5996 C   0  0  1  0  0  0
   12.2515    8.3512   -0.6331 O   0  0
   10.3487    8.1166    0.8829 C   0  0  2  0  0  0
   10.9775    7.0607    1.6077 O   0  0
    8.8016    7.9680    0.9672 C   0  0  1  0  0  0
    8.3461    8.1218    2.3246 O   0  0
    8.1260    9.0253    0.0555 C   0  0  2  0  0  0
    6.6960    8.8646    0.0416 O   0  0
   12.7684    8.3020   -1.9015 C   0  0
   13.2173    7.0849   -2.4612 C   0  0
   12.8390    9.4861   -2.6594 C   0  0
   13.2731    9.4487   -3.9951 C   0  0
   13.6665    8.2284   -4.5934 C   0  0
   13.6537    7.0534   -3.8022 C   0  0
   13.1875    5.9277   -1.7279 O   0  0
   14.3964    5.7017   -0.9796 C   0  0
   14.0474    8.2060   -5.9562 C   0  0
   14.4027    7.1562   -6.5393 O   0  0
    6.0297    9.8388   -0.7959 C   0  0  2  0  0  0
    4.5619    9.6071   -0.7815 C   0  0
    4.0170    8.3050   -0.6606 C   0  0
    2.6251    8.1097   -0.5926 C   0  0
    1.7559    9.2125   -0.6608 C   0  0
    2.2781   10.5085   -0.8130 C   0  0
    3.6698   10.7024   -0.8784 C   0  0
   -1.3477    2.6924    1.5257 C   0  0
   -0.3627    1.6727    1.5301 C   0  0
   -0.7959    0.3433    1.2634 C   0  0
   -2.1428    0.0556    0.9775 C   0  0
   -3.0860    1.0950    0.9302 C   0  0
   -2.6906    2.4187    1.1970 C   0  0
    1.0033    1.9133    1.7479 C   0  0
   -3.5978    3.4432    1.1449 O   0  0
   -3.5565    4.1600   -0.1081 C   0  0
   -4.4298    5.3121   -0.0407 C   0  0
   -4.1873    6.3566    0.7611 C   0  0
    1.6253    3.0898    1.9970 C   0  0
    3.0104    3.2287    2.1089 C   0  0
    3.7422    2.2909    1.7083 O   0  0
    3.5669    4.3907    2.5924 N   0  0
    4.9060    4.6804    2.7511 C   0  0
    5.3071    6.0382    2.7088 C   0  0
    6.6722    6.4169    2.8135 C   0  0
    7.6406    5.4033    2.9865 C   0  0
    7.2619    4.0593    3.0916 C   0  0
    5.9087    3.7043    2.9765 C   0  0
    7.0960    7.7701    2.7612 C   0  0
    6.3630    8.6882    3.1938 O   0  0
    8.1871    9.7521   -3.3038 H   0  0
    8.1447   10.9392   -1.8365 H   0  0
    8.5736    7.9107   -1.8216 H   0  0
   10.6535    7.1507   -1.1037 H   0  0
   10.6772    9.0265    1.3854 H   0  0
   10.8833    7.2189    2.5499 H   0  0
    8.4926    6.9578    0.6988 H   0  0
    8.2768   10.0240    0.4653 H   0  0
   12.5558   10.4376   -2.2093 H   0  0
   13.3050   10.3734   -4.5715 H   0  0
   13.9854    6.1085   -4.2327 H   0  0
   14.1764    5.7428    0.0871 H   0  0
   14.8005    4.7207   -1.2297 H   0  0
   15.1276    6.4704   -1.2297 H   0  0
   14.0690    9.0741   -6.6150 H   0  0
    6.2773   10.8230   -0.3983 H   0  0
    4.6789    7.4400   -0.6192 H   0  0
    2.2199    7.1034   -0.4870 H   0  0
    0.6782    9.0628   -0.5957 H   0  0
    1.6042   11.3625   -0.8803 H   0  0
    4.0609   11.7118   -1.0054 H   0  0
   -1.0651    3.7136    1.7817 H   0  0
   -0.0772   -0.4761    1.2786 H   0  0
   -2.4555   -0.9721    0.7927 H   0  0
   -4.1252    0.8744    0.6863 H   0  0
    1.6813    1.0603    1.7195 H   0  0
   -2.5411    4.5411   -0.2173 H   0  0
   -3.9728    3.4937   -0.8637 H   0  0
   -5.3373    5.3997   -0.6381 H   0  0
   -3.1691    6.5683    1.0875 H   0  0
   -5.0081    6.9952    1.0875 H   0  0
    0.9832    3.9630    2.1125 H   0  0
    2.9169    5.1152    2.8620 H   0  0
    4.5467    6.8105    2.5928 H   0  0
    8.6979    5.6627    3.0400 H   0  0
    8.0176    3.2925    3.2622 H   0  0
    5.6319    2.6536    3.0637 H   0  0
  1  2  1  0
  3  2  1  0
  3  4  1  0
  4  5  1  0
  5  6  1  0
  5  7  1  0
  7  8  1  0
  7  9  1  0
  9 10  1  0
  9 11  1  0
  3 11  1  0
 11 12  1  0
  6 13  1  0
 15 16  1  0
 16 17  2  0
 17 18  1  0
 14 18  2  0
 14 13  1  0
 13 15  2  0
 14 19  1  0
 19 20  1  0
 17 21  1  0
 21 22  2  0
  1 23  1  0
 12 23  1  0
 23 24  1  0
 25 26  1  0
 26 27  2  0
 27 28  1  0
 28 29  2  0
 29 24  1  0
 25 24  2  0
 30 31  2  0
 31 32  1  0
 32 33  2  0
 33 34  1  0
 34 35  2  0
 30 35  1  0
 31 36  1  0
 35 37  1  0
 37 38  1  0
 38 39  1  0
 39 40  2  0
 41 42  1  0
 42 44  1  0
 42 43  2  0
 36 41  2  0
 44 45  1  0
 46 47  2  0
 47 48  1  0
 48 49  2  0
 49 50  1  0
 50 45  2  0
 46 45  1  0
 47 51  1  0
 51 52  2  0
 10 51  1  0
  2 53  1  0
  2 54  1  0
  3 55  1  0
  5 56  1  0
  7 57  1  0
  8 58  1  0
  9 59  1  0
 11 60  1  0
 15 61  1  0
 16 62  1  0
 18 63  1  0
 20 64  1  0
 20 65  1  0
 20 66  1  0
 21 67  1  0
 23 68  1  0
 25 69  1  0
 26 70  1  0
 27 71  1  0
 28 72  1  0
 29 73  1  0
 30 74  1  0
 32 75  1  0
 33 76  1  0
 34 77  1  0
 36 78  1  0
 38 79  1  0
 38 80  1  0
 39 81  1  0
 40 82  1  0
 40 83  1  0
 41 84  1  0
 44 85  1  0
 46 86  1  0
 48 87  1  0
 49 88  1  0
 50 89  1  0
M  END
> <Name>
TBS2010 - Intermediário - (18a)

$$$$
TBS2010 - Intermediário - (19a)
  SciTegic12132405553D

127134  0  0  0  0            999 V2000
    0.4106   11.0194   -3.6772 O   0  0
    1.7311   11.3205   -3.1822 C   0  0
    2.1785   10.2334   -2.1827 C   0  0  1  0  0  0
    3.4398   10.5650   -1.5818 O   0  0
    3.9565    9.5192   -0.7224 C   0  0  1  0  0  0
    5.2172    9.9339   -0.1478 O   0  0
    2.9622    9.1856    0.4339 C   0  0  2  0  0  0
    3.4892    8.0237    1.1003 O   0  0
    1.4887    8.9084   -0.0919 C   0  0  1  0  0  0
    0.4635    8.6647    1.0005 O   0  0
    1.1065   10.0969   -1.0673 C   0  0  2  0  0  0
   -0.1898    9.8796   -1.6530 O   0  0
    6.1732   10.2341   -1.0840 C   0  0
    6.3416   11.5657   -1.5228 C   0  0
    6.9964    9.2201   -1.6111 C   0  0
    7.9591    9.5241   -2.5914 C   0  0
    8.1232   10.8493   -3.0607 C   0  0
    7.2932   11.8614   -2.5202 C   0  0
    5.5594   12.5700   -1.0173 O   0  0
    6.1087   13.1692    0.1697 C   0  0
    9.1005   11.1360   -4.0448 C   0  0
    9.2732   12.2856   -4.5106 O   0  0
   -0.5738   10.8796   -2.6287 C   0  0  2  0  0  0
   -1.8516   10.4748   -3.2675 C   0  0
   -2.8569   11.4324   -3.5432 C   0  0
   -4.0741   11.0466   -4.1334 C   0  0
   -4.3034    9.6979   -4.4566 C   0  0
   -3.3071    8.7375   -4.2086 C   0  0
   -2.0860    9.1246   -3.6274 C   0  0
   -6.8600    2.5246   -4.8082 C   0  0
   -5.8126    1.6038   -4.5480 C   0  0
   -5.9123    0.3205   -5.1511 C   0  0
   -6.9806   -0.0136   -6.0042 C   0  0
   -7.9762    0.9354   -6.2842 C   0  0
   -7.9164    2.2088   -5.6883 C   0  0
   -4.6760    1.9139   -3.7823 C   0  0
   -8.8868    3.1369   -5.9499 O   0  0
   -8.5166    4.0750   -6.9826 C   0  0
   -9.5400    5.0944   -7.0773 C   0  0
   -9.8144    5.9432   -6.0785 C   0  0
   -4.4653    3.0029   -3.0090 C   0  0
   -3.2660    3.2806   -2.3534 C   0  0
   -2.2508    2.5886   -2.6085 O   0  0
   -3.1820    4.3396   -1.4852 N   0  0
   -2.0980    4.7450   -0.7414 C   0  0
   -2.0264    6.1137   -0.3902 C   0  0
   -0.9369    6.6349    0.3538 C   0  0
    0.0777    5.7438    0.7660 C   0  0
    0.0119    4.3775    0.4597 C   0  0
   -1.0686    3.8806   -0.2885 C   0  0
   -0.8029    8.0438    0.6990 C   0  0
   -1.8939    8.6978    0.7412 O   0  0
   -1.3840    6.8693   10.9402 C   0  0
   -0.4405    7.8885   11.2350 C   0  0
   -0.4086    8.3725   12.5695 C   0  0
   -1.2525    7.8486   13.5646 C   0  0
   -2.1461    6.8136   13.2557 C   0  0
   -2.2127    6.3180   11.9416 C   0  0
    0.4744    8.4194   10.3087 C   0  0
   -3.1045    5.3263   11.6365 O   0  0
   -2.5563    4.0004   11.7733 C   0  0
   -3.5536    3.0360   11.3599 C   0  0
   -4.0464    3.0068   10.1161 C   0  0
    0.5755    8.1507    8.9898 C   0  0
    1.5568    8.6694    8.1493 C   0  0
    2.5013    9.3400    8.6282 O   0  0
    1.5009    8.4026    6.8063 N   0  0
    2.3370    8.8256    5.7990 C   0  0
    2.3547    8.0496    4.6172 C   0  0
    3.1928    8.3769    3.5229 C   0  0
    4.0243    9.5141    3.6244 C   0  0
    3.9883   10.3215    4.7721 C   0  0
    3.1508    9.9837    5.8486 C   0  0
    3.2318    7.5642    2.3610 C   0  0
    3.1532    6.3208    2.4827 O   0  0
    2.3871   11.2659   -4.0510 H   0  0
    1.6298   12.2571   -2.6338 H   0  0
    2.3670    9.2963   -2.7065 H   0  0
    4.1452    8.6700   -1.3791 H   0  0
    2.9274    9.9878    1.1709 H   0  0
    1.4367    7.9447   -0.5987 H   0  0
    0.9895   11.0377   -0.5295 H   0  0
    6.8879    8.1945   -1.2583 H   0  0
    8.5837    8.7252   -2.9911 H   0  0
    7.3886   12.8864   -2.8783 H   0  0
    6.4271   12.3863    0.8580 H   0  0
    6.9652   13.7877   -0.0985 H   0  0
    5.3498   13.7877    0.6490 H   0  0
    9.7813   10.4062   -4.4830 H   0  0
   -0.6417   11.8277   -2.0953 H   0  0
   -2.6915   12.4814   -3.2976 H   0  0
   -4.8404   11.7936   -4.3404 H   0  0
   -5.2529    9.3969   -4.8992 H   0  0
   -3.4813    7.6930   -4.4669 H   0  0
   -1.3158    8.3729   -3.4547 H   0  0
   -6.8528    3.4989   -4.3197 H   0  0
   -5.1467   -0.4298   -4.9536 H   0  0
   -7.0369   -1.0075   -6.4481 H   0  0
   -8.7924    0.6845   -6.9616 H   0  0
   -3.8419    1.2122   -3.7891 H   0  0
   -7.6048    4.5699   -6.6481 H   0  0
   -8.5251    3.5274   -7.9250 H   0  0
  -10.1509    5.2336   -7.9691 H   0  0
   -9.0158    6.2886   -5.4219 H   0  0
  -10.8363    6.2886   -5.9221 H   0  0
   -5.3043    3.6915   -2.9090 H   0  0
   -4.0228    4.8893   -1.3804 H   0  0
   -2.8295    6.7824   -0.7000 H   0  0
    0.9299    6.1186    1.3329 H   0  0
    0.7978    3.7042    0.8019 H   0  0
   -1.1085    2.8161   -0.5194 H   0  0
   -1.4745    6.5005    9.9185 H   0  0
    0.2843    9.1699   12.8380 H   0  0
   -1.2138    8.2461   14.5787 H   0  0
   -2.7859    6.3962   14.0333 H   0  0
    1.2097    9.1418   10.6634 H   0  0
   -1.7298    3.9262   11.0666 H   0  0
   -2.3801    3.8400   12.8369 H   0  0
   -3.9613    2.2802   12.0311 H   0  0
   -5.1247    2.9950    9.9572 H   0  0
   -3.3695    2.9950    9.2618 H   0  0
   -0.1775    7.4772    8.5806 H   0  0
    0.7351    7.8105    6.5182 H   0  0
    1.7056    7.1766    4.5481 H   0  0
    4.7004    9.7711    2.8089 H   0  0
    4.6125   11.2134    4.8275 H   0  0
    3.1323   10.6253    6.7296 H   0  0
  1  2  1  0
  3  2  1  0
  3  4  1  0
  4  5  1  0
  5  6  1  0
  5  7  1  0
  7  8  1  0
  7  9  1  0
  9 10  1  0
  9 11  1  0
  3 11  1  0
 11 12  1  0
  6 13  1  0
 15 16  1  0
 16 17  2  0
 17 18  1  0
 14 18  2  0
 14 13  1  0
 13 15  2  0
 14 19  1  0
 19 20  1  0
 17 21  1  0
 21 22  2  0
  1 23  1  0
 12 23  1  0
 23 24  1  0
 25 26  1  0
 26 27  2  0
 27 28  1  0
 28 29  2  0
 29 24  1  0
 25 24  2  0
 30 31  2  0
 31 32  1  0
 32 33  2  0
 33 34  1  0
 34 35  2  0
 30 35  1  0
 31 36  1  0
 35 37  1  0
 37 38  1  0
 38 39  1  0
 39 40  2  0
 41 42  1  0
 42 44  1  0
 42 43  2  0
 36 41  2  0
 44 45  1  0
 46 47  2  0
 47 48  1  0
 48 49  2  0
 49 50  1  0
 50 45  2  0
 46 45  1  0
 47 51  1  0
 51 52  2  0
 10 51  1  0
 53 54  2  0
 54 55  1  0
 55 56  2  0
 56 57  1  0
 57 58  2  0
 53 58  1  0
 54 59  1  0
 58 60  1  0
 60 61  1  0
 61 62  1  0
 62 63  2  0
 64 65  1  0
 65 67  1  0
 65 66  2  0
 59 64  2  0
 67 68  1  0
 69 70  2  0
 70 71  1  0
 71 72  2  0
 72 73  1  0
 73 68  2  0
 69 68  1  0
 70 74  1  0
 74 75  2  0
  8 74  1  0
  2 76  1  0
  2 77  1  0
  3 78  1  0
  5 79  1  0
  7 80  1  0
  9 81  1  0
 11 82  1  0
 15 83  1  0
 16 84  1  0
 18 85  1  0
 20 86  1  0
 20 87  1  0
 20 88  1  0
 21 89  1  0
 23 90  1  0
 25 91  1  0
 26 92  1  0
 27 93  1  0
 28 94  1  0
 29 95  1  0
 30 96  1  0
 32 97  1  0
 33 98  1  0
 34 99  1  0
 36100  1  0
 38101  1  0
 38102  1  0
 39103  1  0
 40104  1  0
 40105  1  0
 41106  1  0
 44107  1  0
 46108  1  0
 48109  1  0
 49110  1  0
 50111  1  0
 53112  1  0
 55113  1  0
 56114  1  0
 57115  1  0
 59116  1  0
 61117  1  0
 61118  1  0
 62119  1  0
 63120  1  0
 63121  1  0
 64122  1  0
 67123  1  0
 69124  1  0
 71125  1  0
 72126  1  0
 73127  1  0
M  END
> <Name>
TBS2010 - Intermediário - (19a)

$$$$
TBS2010 - Intermediário - R - (4)
  SciTegic12132405553D

 51 54  0  0  0  0            999 V2000
   -7.2888    3.3307    0.8766 O   0  0
   -6.2389    3.8066    1.7463 C   0  0
   -5.9448    2.7697    2.8538 C   0  0  1  0  0  0
   -4.9902    3.2744    3.8044 O   0  0
   -4.6349    2.3332    4.8499 C   0  0  1  0  0  0
   -3.6759    2.9453    5.7434 O   0  0
   -5.9018    1.9006    5.6455 C   0  0  2  0  0  0
   -5.5713    0.9066    6.6146 O   0  0
   -7.0039    1.3792    4.6752 C   0  0  1  0  0  0
   -8.2046    1.0752    5.3826 O   0  0
   -7.2785    2.4420    3.5790 C   0  0  2  0  0  0
   -8.2506    1.9899    2.6193 O   0  0
   -2.5044    3.2734    5.1050 C   0  0
   -1.4684    2.3221    4.9774 C   0  0
   -2.3432    4.5590    4.5516 C   0  0
   -1.1808    4.8801    3.8300 C   0  0
   -0.1510    3.9252    3.6582 C   0  0
   -0.3151    2.6409    4.2320 C   0  0
   -1.5988    1.0797    5.5398 O   0  0
   -1.1077    1.0162    6.8932 C   0  0
    1.0097    4.2736    2.9276 C   0  0
    1.9634    3.4804    2.7576 O   0  0
   -8.5001    2.9685    1.5790 C   0  0  2  0  0  0
   -9.4723    2.4380    0.5884 C   0  0
   -9.5566    1.0563    0.2819 C   0  0
  -10.5228    0.5757   -0.6232 C   0  0
  -11.4034    1.4731   -1.2522 C   0  0
  -11.3107    2.8500   -0.9873 C   0  0
  -10.3494    3.3272   -0.0780 C   0  0
   -5.3528    3.8801    1.1158 H   0  0
   -6.6427    4.6988    2.2249 H   0  0
   -5.4555    1.8875    2.4408 H   0  0
   -4.1375    1.4921    4.3669 H   0  0
   -6.2784    2.7245    6.2517 H   0  0
   -5.6911    1.2669    7.4963 H   0  0
   -6.7243    0.4199    4.2395 H   0  0
   -8.0389    1.1171    6.3272 H   0  0
   -7.7501    3.3224    4.0157 H   0  0
   -3.1225    5.3098    4.6824 H   0  0
   -1.0772    5.8766    3.4007 H   0  0
    0.4590    1.8854    4.0977 H   0  0
   -0.9993   -0.0265    7.1918 H   0  0
   -0.1395    1.5135    6.9521 H   0  0
   -1.8127    1.5135    7.5593 H   0  0
    1.1848    5.2392    2.4533 H   0  0
   -8.8785    3.8570    2.0845 H   0  0
   -8.8678    0.3526    0.7493 H   0  0
  -10.5890   -0.4911   -0.8369 H   0  0
  -12.1580    1.1014   -1.9454 H   0  0
  -11.9837    3.5470   -1.4866 H   0  0
  -10.2834    4.3984    0.1125 H   0  0
  1  2  1  0
  3  2  1  0
  3  4  1  0
  5  4  1  0
  5  6  1  0
  7  5  1  0
  7  8  1  0
  7  9  1  0
  9 10  1  0
  9 11  1  0
 11  3  1  0
 11 12  1  0
  6 13  1  0
 15 16  1  0
 16 17  2  0
 17 18  1  0
 14 18  2  0
 14 13  1  0
 13 15  2  0
 14 19  1  0
 19 20  1  0
 17 21  1  0
 21 22  2  0
 23  1  1  0
 23 12  1  0
 23 24  1  0
 25 26  1  0
 26 27  2  0
 27 28  1  0
 28 29  2  0
 29 24  1  0
 25 24  2  0
  2 30  1  0
  2 31  1  0
  3 32  1  0
  5 33  1  0
  7 34  1  0
  8 35  1  0
  9 36  1  0
 10 37  1  0
 11 38  1  0
 15 39  1  0
 16 40  1  0
 18 41  1  0
 20 42  1  0
 20 43  1  0
 20 44  1  0
 21 45  1  0
 23 46  1  0
 25 47  1  0
 26 48  1  0
 27 49  1  0
 28 50  1  0
 29 51  1  0
M  END
> <Name>
TBS2010 - Intermediário - R - (4)

$$$$
TBS2010 - Intermediário - R - (7)
  SciTegic12132405553D

 47 50  0  0  0  0            999 V2000
   -2.0913   34.0894    3.3951 O   0  0
   -0.9874   33.9768    4.3199 C   0  0
   -1.3167   32.9504    5.4281 C   0  0  1  0  0  0
   -0.2875   32.8955    6.4329 O   0  0
   -0.5260   31.9125    7.4758 C   0  0  1  0  0  0
    0.5566   31.9346    8.4357 O   0  0
   -1.8665   32.2146    8.2048 C   0  0  2  0  0  0
   -2.1449   31.2114    9.1802 O   0  0
   -3.0291   32.3200    7.1754 C   0  0  1  0  0  0
   -4.2477   32.6846    7.8199 O   0  0
   -2.6649   33.3595    6.0829 C   0  0  2  0  0  0
   -3.6859   33.4525    5.0719 O   0  0
    1.7642   31.6320    7.8610 C   0  0
    2.5782   32.6619    7.3474 C   0  0
    2.1873   30.2933    7.7528 C   0  0
    3.3880   29.9827    7.0918 C   0  0
    4.1759   31.0116    6.5447 C   0  0
    3.7817   32.3663    6.6628 C   0  0
    4.5793   33.3845    6.0899 C   0  0
    4.2653   34.5958    6.1378 O   0  0
   -3.3532   34.4033    4.0294 C   0  0  2  0  0  0
   -4.4147   34.4271    2.9873 C   0  0
   -4.6847   35.6289    2.2893 C   0  0
   -5.7116   35.6960    1.3301 C   0  0
   -6.4822   34.5558    1.0452 C   0  0
   -6.2126   33.3445    1.7061 C   0  0
   -5.1793   33.2779    2.6613 C   0  0
   -0.1588   33.5793    3.7338 H   0  0
   -0.9023   34.9571    4.7889 H   0  0
   -1.3243   31.9382    5.0237 H   0  0
   -0.5115   30.9355    6.9928 H   0  0
   -1.7903   33.1251    8.7992 H   0  0
   -2.0419   31.5827   10.0595 H   0  0
   -3.2599   31.3477    6.7401 H   0  0
   -4.1293   32.6492    8.7719 H   0  0
   -2.6376   34.3630    6.5075 H   0  0
    2.2732   33.6997    7.4814 H   0  0
    1.5831   29.4943    8.1824 H   0  0
    3.7079   28.9444    7.0034 H   0  0
    5.0996   30.7570    6.0249 H   0  0
    5.5203   33.2211    5.5646 H   0  0
   -3.2502   35.3696    4.5231 H   0  0
   -4.0907   36.5195    2.4943 H   0  0
   -5.9102   36.6318    0.8076 H   0  0
   -7.2876   34.6109    0.3128 H   0  0
   -6.8041   32.4578    1.4783 H   0  0
   -4.9695   32.3280    3.1530 H   0  0
  1  2  1  0
  3  2  1  0
  3  4  1  0
  5  4  1  0
  5  6  1  0
  7  5  1  0
  7  8  1  0
  7  9  1  0
  9 10  1  0
  9 11  1  0
 11  3  1  0
 11 12  1  0
  6 13  1  0
 15 16  1  0
 16 17  2  0
 17 18  1  0
 14 18  2  0
 14 13  1  0
 13 15  2  0
 18 19  1  0
 19 20  2  0
 21  1  1  0
 21 12  1  0
 21 22  1  0
 23 24  1  0
 24 25  2  0
 25 26  1  0
 26 27  2  0
 27 22  1  0
 23 22  2  0
  2 28  1  0
  2 29  1  0
  3 30  1  0
  5 31  1  0
  7 32  1  0
  8 33  1  0
  9 34  1  0
 10 35  1  0
 11 36  1  0
 14 37  1  0
 15 38  1  0
 16 39  1  0
 17 40  1  0
 19 41  1  0
 21 42  1  0
 23 43  1  0
 24 44  1  0
 25 45  1  0
 26 46  1  0
 27 47  1  0
M  END
> <Name>
TBS2010 - Intermediário - R - (7)

$$$$
TBS2010 - Intermediário - R - (12a)
  SciTegic12132405553D

 98101  0  0  0  0            999 V2000
    7.6362   15.8532  -11.2670 O   0  0
    8.8658   16.4787  -10.8274 C   0  0
    9.6338   15.5383   -9.8706 C   0  0  1  0  0  0
   10.8270   16.1438   -9.3262 O   0  0
   11.5931   15.2535   -8.4665 C   0  0  1  0  0  0
   12.7461   15.9318   -7.9199 O   0  0
   10.7309   14.7387   -7.2793 C   0  0  2  0  0  0
   11.4526   13.7715   -6.5125 O   0  0
    9.3879   14.1385   -7.7784 C   0  0  1  0  0  0
    8.5694   13.8516   -6.6356 O   0  0
    8.6730   15.1461   -8.7172 C   0  0  2  0  0  0
    7.4596   14.5803   -9.2477 O   0  0
   13.6150   16.3619   -8.8863 C   0  0
   14.6280   15.5117   -9.3795 C   0  0
   13.4917   17.6670   -9.3973 C   0  0
   14.3229   18.0983  -10.4447 C   0  0
   15.2915   17.2334  -11.0053 C   0  0
   15.4507   15.9448  -10.4385 C   0  0
   14.7848   14.2502   -8.8711 O   0  0
   15.6945   14.2068   -7.7594 C   0  0
   16.0598   17.6650  -12.1154 C   0  0
   16.9163   16.9388  -12.6686 O   0  0
    6.7744   15.4556  -10.1714 C   0  0  2  0  0  0
    5.5645   14.7673  -10.7059 C   0  0
    5.5534   13.3743  -10.9697 C   0  0
    4.3886   12.7360  -11.4358 C   0  0
    3.2199   13.4811  -11.6711 C   0  0
    3.2172   14.8658  -11.4344 C   0  0
    4.3788   15.5009  -10.9557 C   0  0
    7.3900   13.1763   -6.6273 C   0  0
    6.4117   13.7428   -6.0901 O   0  0
    7.2646   11.7897   -7.1249 C   0  0
    6.8660   10.8401   -5.9672 C   0  0
    6.9232    9.3342   -6.3311 C   0  0
    6.4999    8.4623   -5.1202 C   0  0
    6.5256    6.9365   -5.3999 C   0  0
    6.0506    6.1381   -4.1533 C   0  0
    6.0185    4.5980   -4.3480 C   0  0
    5.5202    3.8580   -3.0714 C   0  0
    5.4800    2.3162   -3.2520 C   0  0
    4.9879    1.5546   -1.9898 C   0  0
    4.9634    0.0162   -2.2068 C   0  0
    4.4763   -0.7663   -0.9587 C   0  0
    4.4570   -2.3001   -1.1879 C   0  0
    3.9690   -3.0766    0.0642 C   0  0
    3.9567   -4.6025   -0.1837 C   0  0
    9.4677   16.5998  -11.7280 H   0  0
    8.5577   17.3543  -10.2560 H   0  0
   10.0304   14.6839  -10.4191 H   0  0
   11.9506   14.4610   -9.1239 H   0  0
   10.5458   15.5476   -6.5725 H   0  0
   11.3239   13.9440   -5.5769 H   0  0
    9.5255   13.1841   -8.2864 H   0  0
    8.3306   16.0214   -8.1652 H   0  0
   12.7490   18.3468   -8.9799 H   0  0
   14.2152   19.1138  -10.8261 H   0  0
   16.2194   15.2750  -10.8239 H   0  0
   15.9048   13.1687   -7.5024 H   0  0
   16.6231   14.7095   -8.0300 H   0  0
   15.2455   14.7095   -6.9028 H   0  0
   15.9852   18.6450  -12.5867 H   0  0
    6.5128   16.3606   -9.6231 H   0  0
    6.4559   12.7840  -10.8116 H   0  0
    4.3916   11.6608  -11.6150 H   0  0
    2.3193   12.9871  -12.0357 H   0  0
    2.3144   15.4470  -11.6221 H   0  0
    4.3598   16.5759  -10.7761 H   0  0
    6.4382   11.8032   -7.8355 H   0  0
    8.2626   11.5015   -7.4550 H   0  0
    7.6187   10.9862   -5.1924 H   0  0
    5.8183   11.0542   -5.7565 H   0  0
    6.1735    9.1739   -7.1060 H   0  0
    7.9698    9.1028   -6.5292 H   0  0
    7.2535    8.6358   -4.3520 H   0  0
    5.4565    8.7109   -4.9261 H   0  0
    5.7903    6.7540   -6.1837 H   0  0
    7.5702    6.6695   -5.5597 H   0  0
    6.7991    6.3217   -3.3824 H   0  0
    5.0149    6.4356   -3.9891 H   0  0
    5.2760    4.4054   -5.1224 H   0  0
    7.0532    4.2891   -4.4962 H   0  0
    6.2644    4.0515   -2.2988 H   0  0
    4.4867    4.1710   -2.9233 H   0  0
    4.7354    2.1259   -4.0250 H   0  0
    6.5141    2.0067   -3.4034 H   0  0
    5.7301    1.7404   -1.2135 H   0  0
    3.9518    1.8566   -1.8367 H   0  0
    4.2212   -0.1665   -2.9839 H   0  0
    6.0001   -0.2824   -2.3624 H   0  0
    5.2177   -0.5862   -0.1803 H   0  0
    3.4389   -0.4708   -0.8021 H   0  0
    3.7153   -2.4813   -1.9658 H   0  0
    5.4942   -2.5966   -1.3440 H   0  0
    4.7097   -2.8999    0.8441 H   0  0
    2.9308   -2.7845    0.2224 H   0  0
    3.9524   -5.1258    0.7724 H   0  0
    3.0645   -4.8715   -0.7491 H   0  0
    4.8444   -4.8859   -0.7491 H   0  0
  1  2  1  0
  3  2  1  0
  3  4  1  0
  5  4  1  0
  5  6  1  0
  7  5  1  0
  7  8  1  0
  7  9  1  0
  9 10  1  0
  9 11  1  0
 11  3  1  0
 11 12  1  0
  6 13  1  0
 15 16  1  0
 16 17  2  0
 17 18  1  0
 14 18  2  0
 14 13  1  0
 13 15  2  0
 14 19  1  0
 19 20  1  0
 17 21  1  0
 21 22  2  0
 23  1  1  0
 23 12  1  0
 23 24  1  0
 25 26  1  0
 26 27  2  0
 27 28  1  0
 28 29  2  0
 29 24  1  0
 25 24  2  0
 10 30  1  0
 30 31  2  0
 30 32  1  0
 32 33  1  0
 33 34  1  0
 34 35  1  0
 35 36  1  0
 36 37  1  0
 37 38  1  0
 38 39  1  0
 39 40  1  0
 40 41  1  0
 41 42  1  0
 42 43  1  0
 43 44  1  0
 44 45  1  0
 45 46  1  0
  2 47  1  0
  2 48  1  0
  3 49  1  0
  5 50  1  0
  7 51  1  0
  8 52  1  0
  9 53  1  0
 11 54  1  0
 15 55  1  0
 16 56  1  0
 18 57  1  0
 20 58  1  0
 20 59  1  0
 20 60  1  0
 21 61  1  0
 23 62  1  0
 25 63  1  0
 26 64  1  0
 27 65  1  0
 28 66  1  0
 29 67  1  0
 32 68  1  0
 32 69  1  0
 33 70  1  0
 33 71  1  0
 34 72  1  0
 34 73  1  0
 35 74  1  0
 35 75  1  0
 36 76  1  0
 36 77  1  0
 37 78  1  0
 37 79  1  0
 38 80  1  0
 38 81  1  0
 39 82  1  0
 39 83  1  0
 40 84  1  0
 40 85  1  0
 41 86  1  0
 41 87  1  0
 42 88  1  0
 42 89  1  0
 43 90  1  0
 43 91  1  0
 44 92  1  0
 44 93  1  0
 45 94  1  0
 45 95  1  0
 46 96  1  0
 46 97  1  0
 46 98  1  0
M  END
> <Name>
TBS2010 - Intermediário - R - (12a)

$$$$
TBS2010 - Intermediário - R - (13a)
  SciTegic12132405553D

 98101  0  0  0  0            999 V2000
   12.8726   20.4870   -0.3441 O   0  0
   14.0634   20.4623    0.4781 C   0  0
   14.0621   19.2070    1.3802 C   0  0  1  0  0  0
   15.1772   19.1798    2.3000 O   0  0
   15.2463   17.9672    3.0986 C   0  0  1  0  0  0
   16.3390   18.0339    4.0483 O   0  0
   13.9311   17.7533    3.9099 C   0  0  2  0  0  0
   13.9628   16.4368    4.4920 O   0  0
   12.6636   17.9076    3.0160 C   0  0  1  0  0  0
   11.4767   17.9163    3.8080 O   0  0
   12.7351   19.2103    2.1851 C   0  0  2  0  0  0
   11.5982   19.3099    1.3041 O   0  0
   17.5774   18.1492    3.4740 C   0  0
   18.3324   17.0001    3.1501 C   0  0
   18.1096   19.4274    3.2127 C   0  0
   19.3281   19.5626    2.5259 C   0  0
   20.0424   18.4202    2.0931 C   0  0
   19.5513   17.1404    2.4529 C   0  0
   17.8603   15.7521    3.4670 O   0  0
   18.3283   15.2738    4.7430 C   0  0
   21.2033   18.5764    1.3002 C   0  0
   21.8502   17.6007    0.8553 O   0  0
   11.6376   20.4519    0.4114 C   0  0  2  0  0  0
   10.4953   20.3824   -0.5467 C   0  0
   10.0563   19.1394   -1.0657 C   0  0
    8.9393   19.0610   -1.9175 C   0  0
    8.2582   20.2304   -2.2931 C   0  0
    8.7054   21.4792   -1.8294 C   0  0
    9.8164   21.5544   -0.9675 C   0  0
   13.0650   15.9235    5.3792 C   0  0
   12.5574   14.8131    5.1000 O   0  0
   12.7794   16.5751    6.6779 C   0  0
   13.2393   15.6727    7.8465 C   0  0
   13.1450   16.3339    9.2461 C   0  0
   13.6228   15.3318   10.3294 C   0  0
   13.5338   15.8666   11.7776 C   0  0
   13.9979   14.7906   12.7946 C   0  0
   13.9080   15.2891   14.2556 C   0  0
   14.3687   14.2146   15.2710 C   0  0
   14.2745   14.7282   16.7284 C   0  0
   14.7340   13.6645   17.7562 C   0  0
   14.6369   14.1888   19.2119 C   0  0
   15.0950   13.1320   20.2498 C   0  0
   14.9966   13.6600   21.7040 C   0  0
   15.4545   12.6040   22.7436 C   0  0
   15.3509   13.1442   24.1876 C   0  0
   14.8960   20.3701   -0.2192 H   0  0
   13.9882   21.3367    1.1246 H   0  0
   14.2157   18.3096    0.7809 H   0  0
   15.4633   17.1745    2.3826 H   0  0
   13.8723   18.4554    4.7416 H   0  0
   12.5490   17.0358    2.3719 H   0  0
   11.7128   17.9146    4.7385 H   0  0
   12.6479   20.0968    2.8133 H   0  0
   17.5751   20.3177    3.5440 H   0  0
   19.7216   20.5596    2.3279 H   0  0
   20.1206   16.2491    2.1890 H   0  0
   18.3289   14.1838    4.7445 H   0  0
   19.3406   15.6379    4.9184 H   0  0
   17.6696   15.6379    5.5314 H   0  0
   21.6372   19.5321    1.0063 H   0  0
   11.5972   21.3451    1.0348 H   0  0
   10.5887   18.2249   -0.8044 H   0  0
    8.6010   18.0930   -2.2870 H   0  0
    7.3849   20.1689   -2.9425 H   0  0
    8.1909   22.3892   -2.1382 H   0  0
   10.1549   22.5312   -0.6219 H   0  0
   13.3947   17.4746    6.7004 H   0  0
   11.6940   16.6556    6.7373 H   0  0
   12.5389   14.8377    7.8660 H   0  0
   14.3004   15.4900    7.6765 H   0  0
   13.8533   17.1624    9.2504 H   0  0
   12.0877   16.5200    9.4349 H   0  0
   12.9295   14.4920   10.2827 H   0  0
   14.6843   15.1734   10.1390 H   0  0
   14.2475   16.6875   11.8472 H   0  0
   12.4769   16.0451   11.9756 H   0  0
   13.2890   13.9667   12.7117 H   0  0
   15.0563   14.6208   12.5973 H   0  0
   14.6182   16.1116   14.3396 H   0  0
   12.8498   15.4605   14.4530 H   0  0
   13.6582   13.3920   15.1900 H   0  0
   15.4270   14.0420   15.0752 H   0  0
   14.9837   15.5523   16.8062 H   0  0
   13.2157   14.9002   16.9217 H   0  0
   14.0245   12.8405   17.6802 H   0  0
   15.7928   13.4916   17.5636 H   0  0
   15.3458   15.0136   19.2853 H   0  0
   13.5777   14.3619   19.4021 H   0  0
   14.3862   12.3071   20.1771 H   0  0
   16.1543   12.9586   20.0602 H   0  0
   15.7053   14.4850   21.7762 H   0  0
   13.9372   13.8335   21.8931 H   0  0
   14.7464   11.7781   22.6753 H   0  0
   16.5144   12.4297   22.5584 H   0  0
   15.3008   12.3084   24.8855 H   0  0
   16.2271   13.7526   24.4116 H   0  0
   14.4517   13.7526   24.2843 H   0  0
  1  2  1  0
  3  2  1  0
  3  4  1  0
  5  4  1  0
  5  6  1  0
  7  5  1  0
  7  8  1  0
  7  9  1  0
  9 10  1  0
  9 11  1  0
 11  3  1  0
 11 12  1  0
  6 13  1  0
 15 16  1  0
 16 17  2  0
 17 18  1  0
 14 18  2  0
 14 13  1  0
 13 15  2  0
 14 19  1  0
 19 20  1  0
 17 21  1  0
 21 22  2  0
 23  1  1  0
 23 12  1  0
 23 24  1  0
 25 26  1  0
 26 27  2  0
 27 28  1  0
 28 29  2  0
 29 24  1  0
 25 24  2  0
 30 31  2  0
 30 32  1  0
 32 33  1  0
 33 34  1  0
 34 35  1  0
 35 36  1  0
 36 37  1  0
 37 38  1  0
 38 39  1  0
 39 40  1  0
 40 41  1  0
 41 42  1  0
 42 43  1  0
 43 44  1  0
 44 45  1  0
 45 46  1  0
 30  8  1  0
  2 47  1  0
  2 48  1  0
  3 49  1  0
  5 50  1  0
  7 51  1  0
  9 52  1  0
 10 53  1  0
 11 54  1  0
 15 55  1  0
 16 56  1  0
 18 57  1  0
 20 58  1  0
 20 59  1  0
 20 60  1  0
 21 61  1  0
 23 62  1  0
 25 63  1  0
 26 64  1  0
 27 65  1  0
 28 66  1  0
 29 67  1  0
 32 68  1  0
 32 69  1  0
 33 70  1  0
 33 71  1  0
 34 72  1  0
 34 73  1  0
 35 74  1  0
 35 75  1  0
 36 76  1  0
 36 77  1  0
 37 78  1  0
 37 79  1  0
 38 80  1  0
 38 81  1  0
 39 82  1  0
 39 83  1  0
 40 84  1  0
 40 85  1  0
 41 86  1  0
 41 87  1  0
 42 88  1  0
 42 89  1  0
 43 90  1  0
 43 91  1  0
 44 92  1  0
 44 93  1  0
 45 94  1  0
 45 95  1  0
 46 96  1  0
 46 97  1  0
 46 98  1  0
M  END
> <Name>
TBS2010 - Intermediário - R - (13a)

$$$$
TBS2010 - IntermediÃ¡rio - R - (14a)
  SciTegic12132405553D

145148  0  0  0  0            999 V2000
   16.3123    9.1597   -5.3356 O   0  0
   17.4886    9.2585   -4.4897 C   0  0
   17.5914    8.0357   -3.5403 C   0  0  1  0  0  0
   18.6805    8.1105   -2.5870 O   0  0
   18.8027    6.9262   -1.7409 C   0  0  1  0  0  0
   19.8683    7.0626   -0.7666 O   0  0
   17.4938    6.6597   -0.9399 C   0  0  2  0  0  0
   17.5940    5.3660   -0.3145 O   0  0
   16.2435    6.6974   -1.8630 C   0  0  1  0  0  0
   15.0534    6.7179   -1.0582 O   0  0
   16.2502    7.9505   -2.7668 C   0  0  2  0  0  0
   15.1475    7.8887   -3.6867 O   0  0
   21.1005    7.2253   -1.3343 C   0  0
   21.9099    6.1095   -1.6421 C   0  0
   21.5523    8.5265   -1.6251 C   0  0
   22.7434    8.7130   -2.3443 C   0  0
   23.5095    7.6016   -2.7684 C   0  0
   23.1037    6.3038   -2.3672 C   0  0
   21.5088    4.8418   -1.3010 O   0  0
   21.9857    4.4051   -0.0124 C   0  0
   24.6314    7.8074   -3.6033 C   0  0
   25.3338    6.8640   -4.0351 O   0  0
   15.0754    9.0086   -4.5965 C   0  0  2  0  0  0
   13.9149    8.8079   -5.5144 C   0  0
   13.1321    9.9076   -5.9445 C   0  0
   11.9717    9.7138   -6.7165 C   0  0
   11.5801    8.4170   -7.0864 C   0  0
   12.3668    7.3166   -6.7087 C   0  0
   13.5308    7.5115   -5.9433 C   0  0
   16.6960    4.8031    0.5426 C   0  0
   16.2458    3.6729    0.2435 O   0  0
   16.3387    5.4237    1.8369 C   0  0
   16.8522    4.5491    3.0063 C   0  0
   16.7122    5.2032    4.4045 C   0  0
   17.2625    4.2513    5.5016 C   0  0
   17.1371    4.8160    6.9387 C   0  0
   17.6750    3.8231    8.0057 C   0  0
   17.5433    4.3728    9.4529 C   0  0
   18.0780    3.3794   10.5190 C   0  0
   17.9586    3.9054   11.9776 C   0  0
   18.5062    2.8803   13.0087 C   0  0
   18.4035    3.3733   14.4759 C   0  0
   18.9550    2.3379   15.4925 C   0  0
   18.8521    2.8364   16.9871 C   0  0
   19.3627    1.9210   18.1657 C   0  0
   19.1572    2.6394   19.6227 C   0  0
   13.7941    6.4136   -1.4732 C   0  0
   12.8970    7.2488   -1.2181 O   0  0
   13.4586    5.1140   -2.0978 C   0  0
   12.4761    4.3243   -1.2026 C   0  0
   12.1829    2.8891   -1.7073 C   0  0
   11.1570    2.2044   -0.7690 C   0  0
   10.7247    0.7927   -1.2288 C   0  0
    9.6657    0.2004   -0.2617 C   0  0
    9.1977   -1.2074   -0.6986 C   0  0
    8.1408   -1.7971    0.2682 C   0  0
    7.6842   -3.2076   -0.1791 C   0  0
    6.6288   -3.8153    0.7781 C   0  0
    6.1806   -5.2268    0.3221 C   0  0
    5.1247   -5.8472    1.2716 C   0  0
    4.6803   -7.2595    0.8100 C   0  0
    3.6234   -7.8875    1.7550 C   0  0
    3.1776   -9.2946    1.2992 C   0  0
   18.3374    9.2190   -5.1723 H   0  0
   17.3257   10.1425   -3.8732 H   0  0
   17.8521    7.1447   -4.1115 H   0  0
   19.0772    6.1349   -2.4384 H   0  0
   17.3775    7.3850   -0.1345 H   0  0
   16.1944    5.7915   -2.4672 H   0  0
   16.0795    8.8564   -2.1852 H   0  0
   20.9786    9.3916   -1.2926 H   0  0
   23.0750    9.7255   -2.5744 H   0  0
   23.7198    5.4410   -2.6205 H   0  0
   21.9978    3.3157    0.0205 H   0  0
   22.9945    4.7848    0.1494 H   0  0
   21.3252    4.7848    0.7672 H   0  0
   24.9864    8.7798   -3.9445 H   0  0
   14.9595    9.9219   -4.0129 H   0  0
   13.4283   10.9218   -5.6765 H   0  0
   11.3746   10.5705   -7.0288 H   0  0
   10.6686    8.2651   -7.6646 H   0  0
   12.0739    6.3107   -7.0097 H   0  0
   14.1419    6.6483   -5.6796 H   0  0
   16.8808    6.3686    1.8735 H   0  0
   15.2496    5.4182    1.8789 H   0  0
   16.2056    3.6718    3.0243 H   0  0
   17.9232    4.4335    2.8398 H   0  0
   17.3565    6.0824    4.4022 H   0  0
   15.6438    5.3109    4.5918 H   0  0
   16.6277    3.3656    5.4743 H   0  0
   18.3318    4.1615    5.3102 H   0  0
   17.7875    5.6897    6.9792 H   0  0
   16.0694    4.9220    7.1310 H   0  0
   17.0296    2.9462    7.9553 H   0  0
   18.7438    3.7249    7.8156 H   0  0
   18.1904    5.2484    9.5043 H   0  0
   16.4746    4.4730    9.6426 H   0  0
   17.4297    2.5050   10.4626 H   0  0
   19.1457    3.2798   10.3237 H   0  0
   18.6076    4.7788   12.0417 H   0  0
   16.8922    4.0026   12.1812 H   0  0
   17.8559    2.0083   12.9397 H   0  0
   19.5716    2.7837   12.7993 H   0  0
   19.0541    4.2447   14.5482 H   0  0
   17.3387    3.4689   14.6887 H   0  0
   18.3029    1.4681   15.4126 H   0  0
   20.0183    2.2439   15.2720 H   0  0
   19.4973    3.7140   17.0262 H   0  0
   17.7819    2.9383   17.1668 H   0  0
   18.7211    1.0399   18.1520 H   0  0
   20.4365    1.8157   18.0114 H   0  0
   19.0486    1.8753   20.3925 H   0  0
   20.0243    3.2605   19.8471 H   0  0
   18.2618    3.2605   19.5986 H   0  0
   12.9339    5.3553   -3.0221 H   0  0
   14.3915    4.5511   -2.1316 H   0  0
   12.9790    4.2059   -0.2429 H   0  0
   11.5282    4.8595   -1.2588 H   0  0
   11.7001    2.9908   -2.6792 H   0  0
   13.1134    2.3286   -1.6170 H   0  0
   11.6722    2.0611    0.1808 H   0  0
   10.2574    2.8183   -0.8138 H   0  0
   10.2298    0.9198   -2.1916 H   0  0
   11.6075    0.1584   -1.1493 H   0  0
   10.1678    0.0687    0.6968 H   0  0
    8.7909    0.8465   -0.3345 H   0  0
    8.6949   -1.0765   -1.6568 H   0  0
   10.0719   -1.8543   -0.6258 H   0  0
    8.6416   -1.9271    1.2275 H   0  0
    7.2643   -1.1535    0.1937 H   0  0
    7.1835   -3.0745   -1.1381 H   0  0
    8.5634   -3.8479   -0.1076 H   0  0
    7.1282   -3.9487    1.7378 H   0  0
    5.7481   -3.1772    0.7060 H   0  0
    5.6826   -5.0912   -0.6379 H   0  0
    7.0631   -5.8627    0.3933 H   0  0
    5.6223   -5.9834    2.2318 H   0  0
    4.2418   -5.2120    1.2005 H   0  0
    4.1838   -7.1219   -0.1506 H   0  0
    5.5643   -7.8933    0.8807 H   0  0
    4.1195   -8.0257    2.7157 H   0  0
    2.7390   -7.2542    1.6844 H   0  0
    2.9811   -9.9146    2.1739 H   0  0
    2.2701   -9.2121    0.7010 H   0  0
    3.9669   -9.7498    0.7010 H   0  0
  1  2  1  0
  3  2  1  0
  3  4  1  0
  5  4  1  0
  5  6  1  0
  7  5  1  0
  7  8  1  0
  7  9  1  0
  9 10  1  0
  9 11  1  0
 11  3  1  0
 11 12  1  0
  6 13  1  0
 15 16  1  0
 16 17  2  0
 17 18  1  0
 14 18  2  0
 14 13  1  0
 13 15  2  0
 14 19  1  0
 19 20  1  0
 17 21  1  0
 21 22  2  0
 23  1  1  0
 23 12  1  0
 23 24  1  0
 25 26  1  0
 26 27  2  0
 27 28  1  0
 28 29  2  0
 29 24  1  0
 25 24  2  0
 30 31  2  0
 30 32  1  0
 32 33  1  0
 33 34  1  0
 34 35  1  0
 35 36  1  0
 36 37  1  0
 37 38  1  0
 38 39  1  0
 39 40  1  0
 40 41  1  0
 41 42  1  0
 42 43  1  0
 43 44  1  0
 44 45  1  0
 45 46  1  0
 30  8  1  0
 47 48  2  0
 47 49  1  0
 49 50  1  0
 50 51  1  0
 51 52  1  0
 52 53  1  0
 53 54  1  0
 54 55  1  0
 55 56  1  0
 56 57  1  0
 57 58  1  0
 58 59  1  0
 59 60  1  0
 60 61  1  0
 61 62  1  0
 62 63  1  0
 10 47  1  0
  2 64  1  0
  2 65  1  0
  3 66  1  0
  5 67  1  0
  7 68  1  0
  9 69  1  0
 11 70  1  0
 15 71  1  0
 16 72  1  0
 18 73  1  0
 20 74  1  0
 20 75  1  0
 20 76  1  0
 21 77  1  0
 23 78  1  0
 25 79  1  0
 26 80  1  0
 27 81  1  0
 28 82  1  0
 29 83  1  0
 32 84  1  0
 32 85  1  0
 33 86  1  0
 33 87  1  0
 34 88  1  0
 34 89  1  0
 35 90  1  0
 35 91  1  0
 36 92  1  0
 36 93  1  0
 37 94  1  0
 37 95  1  0
 38 96  1  0
 38 97  1  0
 39 98  1  0
 39 99  1  0
 40100  1  0
 40101  1  0
 41102  1  0
 41103  1  0
 42104  1  0
 42105  1  0
 43106  1  0
 43107  1  0
 44108  1  0
 44109  1  0
 45110  1  0
 45111  1  0
 46112  1  0
 46113  1  0
 46114  1  0
 49115  1  0
 49116  1  0
 50117  1  0
 50118  1  0
 51119  1  0
 51120  1  0
 52121  1  0
 52122  1  0
 53123  1  0
 53124  1  0
 54125  1  0
 54126  1  0
 55127  1  0
 55128  1  0
 56129  1  0
 56130  1  0
 57131  1  0
 57132  1  0
 58133  1  0
 58134  1  0
 59135  1  0
 59136  1  0
 60137  1  0
 60138  1  0
 61139  1  0
 61140  1  0
 62141  1  0
 62142  1  0
 63143  1  0
 63144  1  0
 63145  1  0
M  END
> <Name>
TBS2010 - IntermediÃ¡rio - R - (14a)

$$$$
TBS2010 - Intermediário - R - (15a)
  SciTegic12132405553D

 94 97  0  0  0  0            999 V2000
    8.0077   -3.0218   -5.9947 O   0  0
    9.2052   -3.1552   -5.1975 C   0  0
    9.0987   -4.3449   -4.2053 C   0  0  1  0  0  0
   10.2196   -4.3871   -3.3025 O   0  0
   10.1873   -5.5092   -2.3837 C   0  0  1  0  0  0
   11.3398   -5.4607   -1.5107 O   0  0
    8.8937   -5.4796   -1.5110 C   0  0  2  0  0  0
    8.8296   -6.6590   -0.7094 O   0  0
    7.5991   -5.3422   -2.3738 C   0  0  1  0  0  0
    6.4700   -5.1083   -1.5021 O   0  0
    7.7861   -4.1784   -3.3916 C   0  0  2  0  0  0
    6.6996   -4.0841   -4.3329 O   0  0
   12.5321   -5.5657   -2.1800 C   0  0
   13.2102   -4.4070   -2.6129 C   0  0
   13.0870   -6.8339   -2.4398 C   0  0
   14.2876   -6.9424   -3.1619 C   0  0
   14.9368   -5.7860   -3.6299 C   0  0
   14.4119   -4.4980   -3.3588 C   0  0
   15.0870   -3.3461   -3.8366 C   0  0
   14.6882   -2.1802   -3.6074 O   0  0
    6.8100   -2.9255   -5.1919 C   0  0  2  0  0  0
    5.6341   -2.8015   -6.0887 C   0  0
    4.8837   -3.9327   -6.4971 C   0  0
    3.7505   -3.7836   -7.3180 C   0  0
    3.3544   -2.5047   -7.7467 C   0  0
    4.0990   -1.3749   -7.3677 C   0  0
    5.2336   -1.5227   -6.5504 C   0  0
    5.1472   -5.1489   -1.8497 C   0  0
    4.5026   -6.2019   -1.6450 O   0  0
    4.4614   -3.9606   -2.3964 C   0  0
    3.3806   -3.3385   -1.4809 C   0  0
    2.9108   -1.9653   -2.0431 C   0  0
    1.9426   -1.1962   -1.1100 C   0  0
    1.5968    0.2097   -1.6773 C   0  0
    0.6419    1.0093   -0.7547 C   0  0
    0.2250    2.3887   -1.3367 C   0  0
   -0.7805    3.1338   -0.4146 C   0  0
   -1.2561    4.4966   -0.9878 C   0  0
   -2.2790    5.2107   -0.0632 C   0  0
   -2.7675    6.5736   -0.6237 C   0  0
   -3.7848    7.2561    0.3296 C   0  0
   -4.2959    8.6252   -0.1913 C   0  0
   -5.3080    9.2826    0.7860 C   0  0
   -5.8254   10.6478    0.2827 C   0  0
    9.9949   -3.3901   -5.9111 H   0  0
    9.2568   -2.2387   -4.6096 H   0  0
    9.1604   -5.2980   -4.7305 H   0  0
   10.2685   -6.4044   -3.0004 H   0  0
    8.9435   -4.6587   -0.7957 H   0  0
    8.8428   -6.4159    0.2192 H   0  0
    7.3416   -6.2629   -2.8974 H   0  0
    7.7565   -3.2426   -2.8334 H   0  0
   12.7998   -3.4275   -2.3677 H   0  0
   12.5863   -7.7333   -2.0812 H   0  0
   14.7159   -7.9251   -3.3594 H   0  0
   15.8552   -5.8888   -4.2080 H   0  0
   15.9974   -3.3581   -4.4359 H   0  0
    6.8784   -2.0525   -4.5428 H   0  0
    5.1820   -4.9305   -6.1756 H   0  0
    3.1787   -4.6603   -7.6223 H   0  0
    2.4699   -2.3891   -8.3731 H   0  0
    3.7966   -0.3843   -7.7075 H   0  0
    5.8074   -0.6386   -6.2725 H   0  0
    5.2477   -3.2124   -2.4970 H   0  0
    3.9415   -4.3272   -3.2815 H   0  0
    2.5191   -4.0048   -1.5242 H   0  0
    3.8652   -3.1355   -0.5259 H   0  0
    3.8070   -1.3486   -2.1105 H   0  0
    2.3364   -2.1920   -2.9413 H   0  0
    1.0113   -1.7626   -1.1031 H   0  0
    2.4849   -1.0276   -0.1797 H   0  0
    2.5332    0.7673   -1.6967 H   0  0
    1.0465    0.0364   -2.6021 H   0  0
   -0.2739    0.4213   -0.6932 H   0  0
    1.2125    1.2255    0.1484 H   0  0
    1.1294    2.9970   -1.3549 H   0  0
   -0.3096    2.1790   -2.2631 H   0  0
   -1.6684    2.5031   -0.3693 H   0  0
   -0.2319    3.3690    0.4975 H   0  0
   -0.3747    5.1373   -1.0146 H   0  0
   -1.7910    4.2667   -1.9092 H   0  0
   -3.1577    4.5664   -0.0347 H   0  0
   -1.7416    5.4406    0.8568 H   0  0
   -1.8928    7.2233   -0.6533 H   0  0
   -3.3114    6.3496   -1.5414 H   0  0
   -4.6562    6.6018    0.3554 H   0  0
   -3.2372    7.4709    1.2473 H   0  0
   -3.4275    9.2834   -0.2184 H   0  0
   -4.8491    8.4148   -1.1065 H   0  0
   -6.1763    8.6241    0.8120 H   0  0
   -4.7544    9.4909    1.7016 H   0  0
   -6.0658   11.2822    1.1358 H   0  0
   -5.0555   11.1277   -0.3215 H   0  0
   -6.7200   10.4970   -0.3215 H   0  0
  1  2  1  0
  3  2  1  0
  3  4  1  0
  5  4  1  0
  5  6  1  0
  7  5  1  0
  7  8  1  0
  7  9  1  0
  9 10  1  0
  9 11  1  0
 11  3  1  0
 11 12  1  0
  6 13  1  0
 15 16  1  0
 16 17  2  0
 17 18  1  0
 14 18  2  0
 14 13  1  0
 13 15  2  0
 18 19  1  0
 19 20  2  0
 21  1  1  0
 21 12  1  0
 21 22  1  0
 23 24  1  0
 24 25  2  0
 25 26  1  0
 26 27  2  0
 27 22  1  0
 23 22  2  0
 10 28  1  0
 28 30  1  0
 30 31  1  0
 31 32  1  0
 32 33  1  0
 33 34  1  0
 34 35  1  0
 35 36  1  0
 36 37  1  0
 37 38  1  0
 38 39  1  0
 39 40  1  0
 40 41  1  0
 41 42  1  0
 42 43  1  0
 43 44  1  0
 28 29  2  0
  2 45  1  0
  2 46  1  0
  3 47  1  0
  5 48  1  0
  7 49  1  0
  8 50  1  0
  9 51  1  0
 11 52  1  0
 14 53  1  0
 15 54  1  0
 16 55  1  0
 17 56  1  0
 19 57  1  0
 21 58  1  0
 23 59  1  0
 24 60  1  0
 25 61  1  0
 26 62  1  0
 27 63  1  0
 30 64  1  0
 30 65  1  0
 31 66  1  0
 31 67  1  0
 32 68  1  0
 32 69  1  0
 33 70  1  0
 33 71  1  0
 34 72  1  0
 34 73  1  0
 35 74  1  0
 35 75  1  0
 36 76  1  0
 36 77  1  0
 37 78  1  0
 37 79  1  0
 38 80  1  0
 38 81  1  0
 39 82  1  0
 39 83  1  0
 40 84  1  0
 40 85  1  0
 41 86  1  0
 41 87  1  0
 42 88  1  0
 42 89  1  0
 43 90  1  0
 43 91  1  0
 44 92  1  0
 44 93  1  0
 44 94  1  0
M  END
> <Name>
TBS2010 - Intermediário - R - (15a)

$$$$
TBS2010 - Intermediário - R - (16a)
  SciTegic12132405553D

 94 97  0  0  0  0            999 V2000
    2.9080    0.4632   -6.6708 O   0  0
    4.2099    0.6614   -6.0783 C   0  0
    4.4287   -0.3856   -4.9667 C   0  0  1  0  0  0
    5.6877   -0.2068   -4.2881 O   0  0
    5.9647   -1.2499   -3.3147 C   0  0  1  0  0  0
    7.2220   -1.0189   -2.6382 O   0  0
    4.8550   -1.3381   -2.2250 C   0  0  2  0  0  0
    5.1192   -2.5401   -1.4804 O   0  0
    3.4261   -1.3460   -2.8639 C   0  0  1  0  0  0
    2.4178   -1.1616   -1.8697 O   0  0
    3.2697   -0.2473   -3.9452 C   0  0  2  0  0  0
    1.9932   -0.3611   -4.6079 O   0  0
    8.2922   -0.9154   -3.4854 C   0  0
    8.6590    0.3534   -3.9793 C   0  0
    9.0375   -2.0513   -3.8593 C   0  0
   10.1242   -1.9166   -4.7409 C   0  0
   10.4730   -0.6481   -5.2430 C   0  0
    9.7442    0.5067   -4.8744 C   0  0
   10.0999    1.7743   -5.4015 C   0  0
    9.5006    2.8277   -5.0871 O   0  0
    1.8239    0.5554   -5.7170 C   0  0  2  0  0  0
    0.5522    0.2367   -6.4198 C   0  0
    0.2010   -1.1013   -6.7262 C   0  0
   -1.0255   -1.4018   -7.3492 C   0  0
   -1.9077   -0.3647   -7.7003 C   0  0
   -1.5573    0.9711   -7.4396 C   0  0
   -0.3401    1.2673   -6.7992 C   0  0
    4.5213   -2.9149   -0.3190 C   0  0
    5.0183   -2.5566    0.7725 O   0  0
    3.3366   -3.7878   -0.3687 C   0  0
    3.6035   -5.2552    0.0503 C   0  0
    2.4395   -6.1772   -0.4055 C   0  0
    2.6813   -7.6768   -0.1048 C   0  0
    1.4894   -8.5641   -0.5564 C   0  0
    1.7002  -10.0627   -0.2216 C   0  0
    0.4842  -10.9518   -0.6040 C   0  0
    0.7098  -12.4378   -0.2151 C   0  0
   -0.4836  -13.3700   -0.5601 C   0  0
   -0.2070  -14.8422   -0.1470 C   0  0
   -1.3838  -15.7945   -0.4835 C   0  0
   -1.1023  -17.2648   -0.0719 C   0  0
   -2.2887  -18.2017   -0.4179 C   0  0
   -2.0273  -19.6762   -0.0153 C   0  0
   -3.2159  -20.5979   -0.3654 C   0  0
    4.9286    0.4622   -6.8733 H   0  0
    4.1737    1.6452   -5.6104 H   0  0
    4.5154   -1.3833   -5.3971 H   0  0
    6.0633   -2.1524   -3.9179 H   0  0
    4.8952   -0.5193   -1.5066 H   0  0
    3.2245   -2.3310   -3.2850 H   0  0
    2.8117   -1.2337   -0.9972 H   0  0
    3.2410    0.7477   -3.5012 H   0  0
    8.0941    1.2305   -3.6639 H   0  0
    8.7736   -3.0334   -3.4668 H   0  0
   10.6967   -2.7961   -5.0353 H   0  0
   11.3180   -0.5589   -5.9258 H   0  0
   10.9063    1.9551   -6.1122 H   0  0
    1.8376    1.5628   -5.3012 H   0  0
    0.8855   -1.9126   -6.4785 H   0  0
   -1.2921   -2.4375   -7.5597 H   0  0
   -2.8618   -0.5959   -8.1738 H   0  0
   -2.2295    1.7771   -7.7341 H   0  0
   -0.0853    2.3071   -6.5946 H   0  0
    2.6539   -3.3703    0.3715 H   0  0
    3.0527   -3.8095   -1.4208 H   0  0
    4.4883   -5.5773   -0.4989 H   0  0
    3.6031   -5.2703    1.1402 H   0  0
    1.5766   -5.8891    0.1948 H   0  0
    2.3999   -6.0946   -1.4917 H   0  0
    3.5329   -7.9753   -0.7163 H   0  0
    2.7326   -7.7640    0.9805 H   0  0
    0.6312   -8.2413    0.0329 H   0  0
    1.4589   -8.4995   -1.6441 H   0  0
    2.5263  -10.3961   -0.8497 H   0  0
    1.7840  -10.1178    0.8637 H   0  0
   -0.3525  -10.6020    0.0007 H   0  0
    0.4180  -10.9280   -1.6917 H   0  0
    1.5424  -12.7818   -0.8287 H   0  0
    0.7920  -12.4506    0.8718 H   0  0
   -1.3205  -13.0332    0.0516 H   0  0
   -0.5676  -13.3684   -1.6469 H   0  0
    0.6326  -15.1745   -0.7576 H   0  0
   -0.1233  -14.8402    0.9398 H   0  0
   -2.2231  -15.4646    0.1288 H   0  0
   -1.4692  -15.7959   -1.5701 H   0  0
   -0.2634  -17.5976   -0.6831 H   0  0
   -1.0195  -17.2670    1.0149 H   0  0
   -3.1263  -17.8661    0.1937 H   0  0
   -2.3707  -18.1958   -1.5048 H   0  0
   -1.1912  -20.0157   -0.6267 H   0  0
   -1.9471  -19.6861    1.0716 H   0  0
   -3.6796  -20.9575    0.5531 H   0  0
   -3.9489  -20.0400   -0.9482 H   0  0
   -2.8581  -21.4466   -0.9482 H   0  0
  1  2  1  0
  3  2  1  0
  3  4  1  0
  5  4  1  0
  5  6  1  0
  7  5  1  0
  7  8  1  0
  7  9  1  0
  9 10  1  0
  9 11  1  0
 11  3  1  0
 11 12  1  0
  6 13  1  0
 15 16  1  0
 16 17  2  0
 17 18  1  0
 14 18  2  0
 14 13  1  0
 13 15  2  0
 18 19  1  0
 19 20  2  0
 21  1  1  0
 21 12  1  0
 21 22  1  0
 23 24  1  0
 24 25  2  0
 25 26  1  0
 26 27  2  0
 27 22  1  0
 23 22  2  0
 28 30  1  0
 30 31  1  0
 31 32  1  0
 32 33  1  0
 33 34  1  0
 34 35  1  0
 35 36  1  0
 36 37  1  0
 37 38  1  0
 38 39  1  0
 39 40  1  0
 40 41  1  0
 41 42  1  0
 42 43  1  0
 43 44  1  0
 28 29  2  0
 28  8  1  0
  2 45  1  0
  2 46  1  0
  3 47  1  0
  5 48  1  0
  7 49  1  0
  9 50  1  0
 10 51  1  0
 11 52  1  0
 14 53  1  0
 15 54  1  0
 16 55  1  0
 17 56  1  0
 19 57  1  0
 21 58  1  0
 23 59  1  0
 24 60  1  0
 25 61  1  0
 26 62  1  0
 27 63  1  0
 30 64  1  0
 30 65  1  0
 31 66  1  0
 31 67  1  0
 32 68  1  0
 32 69  1  0
 33 70  1  0
 33 71  1  0
 34 72  1  0
 34 73  1  0
 35 74  1  0
 35 75  1  0
 36 76  1  0
 36 77  1  0
 37 78  1  0
 37 79  1  0
 38 80  1  0
 38 81  1  0
 39 82  1  0
 39 83  1  0
 40 84  1  0
 40 85  1  0
 41 86  1  0
 41 87  1  0
 42 88  1  0
 42 89  1  0
 43 90  1  0
 43 91  1  0
 44 92  1  0
 44 93  1  0
 44 94  1  0
M  END
> <Name>
TBS2010 - Intermediário - R - (16a)

$$$$
TBS2010 - Intermediário - R - (17a)
  SciTegic12132405553D

141144  0  0  0  0            999 V2000
    0.5052    3.3756   -4.9688 O   0  0
    1.5395    3.4117   -3.9526 C   0  0
    1.1901    2.4496   -2.7898 C   0  0  1  0  0  0
    2.1234    2.4815   -1.6858 O   0  0
    1.8166    1.5132   -0.6383 C   0  0  1  0  0  0
    2.7401    1.6267    0.4689 O   0  0
    0.3951    1.7351   -0.0493 C   0  0  2  0  0  0
    0.0740    0.6176    0.7968 O   0  0
   -0.6677    1.8648   -1.1743 C   0  0  1  0  0  0
   -1.8916    2.3438   -0.6015 O   0  0
   -0.2134    2.8572   -2.2705 C   0  0  2  0  0  0
   -1.1699    2.8618   -3.3432 O   0  0
    4.0360    1.4045    0.1030 C   0  0
    4.5757    0.1052    0.1332 C   0  0
    4.8264    2.4823   -0.3356 C   0  0
    6.1160    2.2552   -0.8707 C   0  0
    6.6287    0.9353   -0.8810 C   0  0
    5.8719   -0.1297   -0.3579 C   0  0
    6.8742    3.3144   -1.4148 C   0  0
    6.4616    4.4965   -1.4300 O   0  0
   -0.8070    3.7081   -4.4556 C   0  0  2  0  0  0
   -1.8490    3.5599   -5.5127 C   0  0
   -2.2781    4.6756   -6.2766 C   0  0
   -3.3496    4.5642   -7.1849 C   0  0
   -4.0055    3.3325   -7.3553 C   0  0
   -3.5615    2.2026   -6.6462 C   0  0
   -2.4822    2.3117   -5.7487 C   0  0
   -1.0294    0.4692    1.5831 C   0  0
   -1.6919   -0.5843    1.4393 O   0  0
   -1.3905    1.4326    2.6463 C   0  0
   -1.2588    0.7712    4.0409 C   0  0
   -1.4100    1.7514    5.2363 C   0  0
   -1.2640    1.0033    6.5922 C   0  0
   -1.4284    1.8995    7.8504 C   0  0
   -1.2998    1.0784    9.1671 C   0  0
   -1.4718    1.9285   10.4575 C   0  0
   -1.3434    1.0877   11.7615 C   0  0
   -1.5137    1.9321   13.0568 C   0  0
   -1.3828    1.0865   14.3576 C   0  0
   -1.5506    1.9203   15.6913 C   0  0
   -1.4219    1.0807   17.1018 C   0  0
   -1.6051    2.0104   18.3319 C   0  0
   -1.4907    1.2560   19.6819 C   0  0
   -1.6744    2.1894   20.9009 C   0  0
   -3.1330    2.2421   -1.1485 C   0  0
   -3.8301    3.2830   -1.1682 O   0  0
   -3.7143    0.9493   -1.5823 C   0  0
   -4.9688    0.6052   -0.7437 C   0  0
   -5.5373   -0.8122   -1.0142 C   0  0
   -6.8146   -1.0460   -0.1656 C   0  0
   -7.5194   -2.4000   -0.4236 C   0  0
   -8.8130   -2.5220    0.4274 C   0  0
   -9.5688   -3.8533    0.1940 C   0  0
  -10.8595   -3.9640    1.0491 C   0  0
  -11.6017   -5.3035    0.8071 C   0  0
  -12.8934   -5.4371    1.6548 C   0  0
  -13.6203   -6.7842    1.4003 C   0  0
  -14.9140   -6.9305    2.2432 C   0  0
  -15.6362   -8.2790    1.9847 C   0  0
  -16.9301   -8.4292    2.8254 C   0  0
  -17.6513   -9.7704    2.5704 C   0  0
    2.4371    3.0309   -4.4399 H   0  0
    1.5226    4.4279   -3.5587 H   0  0
    1.2792    1.4175   -3.1288 H   0  0
    1.9585    0.5456   -1.1198 H   0  0
    0.3675    2.6206    0.5858 H   0  0
   -0.8807    0.8893   -1.6116 H   0  0
   -0.2080    3.8843   -1.9056 H   0  0
    3.9892   -0.7199    0.5374 H   0  0
    4.4380    3.4980   -0.2605 H   0  0
    7.6168    0.7368   -1.2961 H   0  0
    6.2897   -1.1362   -0.3332 H   0  0
    7.8630    3.2106   -1.8615 H   0  0
   -0.7351    4.7363   -4.1009 H   0  0
   -1.7753    5.6361   -6.1635 H   0  0
   -3.6721    5.4338   -7.7576 H   0  0
   -4.8546    3.2538   -8.0343 H   0  0
   -4.0543    1.2414   -6.7924 H   0  0
   -2.1326    1.4190   -5.2302 H   0  0
   -0.6465    2.2273    2.5910 H   0  0
   -2.4450    1.6617    2.4926 H   0  0
   -2.0973    0.0791    4.1181 H   0  0
   -0.2365    0.3968    4.0930 H   0  0
   -0.5716    2.4451    5.1741 H   0  0
   -2.4324    2.1274    5.1992 H   0  0
   -2.0907    0.2938    6.6273 H   0  0
   -0.2355    0.6436    6.6205 H   0  0
   -0.5895    2.5955    7.8404 H   0  0
   -2.4504    2.2775    7.8238 H   0  0
   -2.1323    0.3749    9.1620 H   0  0
   -0.2744    0.7094    9.1892 H   0  0
   -0.6378    2.6303   10.4682 H   0  0
   -2.4963    2.3000   10.4381 H   0  0
   -2.1777    0.3863   11.7495 H   0  0
   -0.3190    0.7158   11.7790 H   0  0
   -0.6800    2.6342   13.0692 H   0  0
   -2.5385    2.3031   13.0408 H   0  0
   -2.2168    0.3850   14.3334 H   0  0
   -0.3581    0.7150   14.3609 H   0  0
   -0.7163    2.6216   15.6802 H   0  0
   -2.5749    2.2911   15.6530 H   0  0
   -2.2571    0.3815   17.1427 H   0  0
   -0.3985    0.7119   17.1698 H   0  0
   -0.7704    2.7110   18.3074 H   0  0
   -2.6290    2.3806   18.2803 H   0  0
   -2.3255    0.5557   19.7099 H   0  0
   -0.4669    0.8861   19.7370 H   0  0
   -1.8100    1.5894   21.8008 H   0  0
   -0.7913    2.8184   21.0133 H   0  0
   -2.5514    2.8184   20.7480 H   0  0
   -4.0439    1.1030   -2.6098 H   0  0
   -2.9590    0.1957   -1.3592 H   0  0
   -4.6386    0.6005    0.2951 H   0  0
   -5.7416    1.3027   -1.0668 H   0  0
   -5.8490   -0.8294   -2.0586 H   0  0
   -4.7909   -1.5214   -0.6564 H   0  0
   -6.4783   -1.0824    0.8705 H   0  0
   -7.5235   -0.2807   -0.4820 H   0  0
   -7.8343   -2.3895   -1.4670 H   0  0
   -6.8395   -3.1739   -0.0672 H   0  0
   -8.4890   -2.5399    1.4680 H   0  0
   -9.4797   -1.7338    0.0777 H   0  0
   -9.8946   -3.8369   -0.8460 H   0  0
   -8.9043   -4.6430    0.5445 H   0  0
  -10.5359   -3.9787    2.0898 H   0  0
  -11.5273   -3.1777    0.6971 H   0  0
  -11.9247   -5.2854   -0.2338 H   0  0
  -10.9298   -6.0877    1.1557 H   0  0
  -12.5733   -5.4556    2.6965 H   0  0
  -13.5687   -4.6558    1.3059 H   0  0
  -13.9390   -6.7641    0.3582 H   0  0
  -12.9429   -7.5641    1.7481 H   0  0
  -14.5962   -6.9512    3.2856 H   0  0
  -15.5923   -6.1513    1.8956 H   0  0
  -15.9535   -8.2580    0.9421 H   0  0
  -14.9574   -9.0579    2.3322 H   0  0
  -16.6138   -8.4511    3.8683 H   0  0
  -17.6099   -7.6511    2.4782 H   0  0
  -17.9014  -10.2355    3.5239 H   0  0
  -18.5647   -9.5898    2.0036 H   0  0
  -16.9970  -10.4328    2.0036 H   0  0
  1  2  1  0
  3  2  1  0
  3  4  1  0
  5  4  1  0
  5  6  1  0
  7  5  1  0
  7  8  1  0
  7  9  1  0
  9 10  1  0
  9 11  1  0
 11  3  1  0
 11 12  1  0
  6 13  1  0
 15 16  1  0
 16 17  2  0
 17 18  1  0
 14 18  2  0
 14 13  1  0
 13 15  2  0
 19 20  2  0
 21  1  1  0
 21 12  1  0
 21 22  1  0
 23 24  1  0
 24 25  2  0
 25 26  1  0
 26 27  2  0
 27 22  1  0
 23 22  2  0
 28 29  2  0
 28 30  1  0
 30 31  1  0
 31 32  1  0
 32 33  1  0
 33 34  1  0
 34 35  1  0
 35 36  1  0
 36 37  1  0
 37 38  1  0
 38 39  1  0
 39 40  1  0
 40 41  1  0
 41 42  1  0
 42 43  1  0
 43 44  1  0
 28  8  1  0
 45 46  2  0
 45 47  1  0
 47 48  1  0
 48 49  1  0
 49 50  1  0
 50 51  1  0
 51 52  1  0
 52 53  1  0
 53 54  1  0
 54 55  1  0
 55 56  1  0
 56 57  1  0
 57 58  1  0
 58 59  1  0
 59 60  1  0
 60 61  1  0
 10 45  1  0
 19 16  1  0
  2 62  1  0
  2 63  1  0
  3 64  1  0
  5 65  1  0
  7 66  1  0
  9 67  1  0
 11 68  1  0
 14 69  1  0
 15 70  1  0
 17 71  1  0
 18 72  1  0
 19 73  1  0
 21 74  1  0
 23 75  1  0
 24 76  1  0
 25 77  1  0
 26 78  1  0
 27 79  1  0
 30 80  1  0
 30 81  1  0
 31 82  1  0
 31 83  1  0
 32 84  1  0
 32 85  1  0
 33 86  1  0
 33 87  1  0
 34 88  1  0
 34 89  1  0
 35 90  1  0
 35 91  1  0
 36 92  1  0
 36 93  1  0
 37 94  1  0
 37 95  1  0
 38 96  1  0
 38 97  1  0
 39 98  1  0
 39 99  1  0
 40100  1  0
 40101  1  0
 41102  1  0
 41103  1  0
 42104  1  0
 42105  1  0
 43106  1  0
 43107  1  0
 44108  1  0
 44109  1  0
 44110  1  0
 47111  1  0
 47112  1  0
 48113  1  0
 48114  1  0
 49115  1  0
 49116  1  0
 50117  1  0
 50118  1  0
 51119  1  0
 51120  1  0
 52121  1  0
 52122  1  0
 53123  1  0
 53124  1  0
 54125  1  0
 54126  1  0
 55127  1  0
 55128  1  0
 56129  1  0
 56130  1  0
 57131  1  0
 57132  1  0
 58133  1  0
 58134  1  0
 59135  1  0
 59136  1  0
 60137  1  0
 60138  1  0
 61139  1  0
 61140  1  0
 61141  1  0
M  END
> <Name>
TBS2010 - Intermediário - R - (17a)

$$$$
TBS2010 - Intermediário - S - (4)
  SciTegic12132405553D

 51 54  0  0  0  0            999 V2000
   -4.8769    3.4759   -4.7664 O   0  0
   -3.5642    3.6643   -4.1906 C   0  0
   -3.2292    2.5615   -3.1619 C   0  0  1  0  0  0
   -2.0411    2.8974   -2.4124 O   0  0
   -1.6437    1.9011   -1.4313 C   0  0  1  0  0  0
   -0.5205    2.3839   -0.6581 O   0  0
   -2.7981    1.5771   -0.4373 C   0  0  2  0  0  0
   -2.4409    0.4747    0.3939 O   0  0
   -4.1308    1.2856   -1.1822 C   0  0  1  0  0  0
   -5.2040    1.1717   -0.2496 O   0  0
   -4.4225    2.4327   -2.1796 C   0  0  2  0  0  0
   -5.6542    2.2310   -2.9053 O   0  0
    0.5772    2.6735   -1.4222 C   0  0
    1.5161    1.6693   -1.7421 C   0  0
    0.7654    3.9853   -1.8957 C   0  0
    1.8421    4.2822   -2.7473 C   0  0
    2.7540    3.2724   -3.1392 C   0  0
    2.5859    1.9685   -2.6106 C   0  0
    1.3645    0.3986   -1.2516 O   0  0
    1.9639    0.2171    0.0456 C   0  0
    3.7935    3.5847   -4.0476 C   0  0
    4.6144    2.7304   -4.4519 O   0  0
   -5.9566    3.3250   -3.8076 C   0  0  1  0  0  0
   -6.3818    4.5897   -3.1263 C   0  0
   -6.1158    5.8538   -3.7075 C   0  0
   -6.4773    7.0428   -3.0498 C   0  0
   -7.1220    6.9917   -1.8024 C   0  0
   -7.4163    5.7467   -1.2203 C   0  0
   -7.0559    4.5563   -1.8787 C   0  0
   -2.8705    3.5563   -5.0244 H   0  0
   -3.6242    4.6091   -3.6505 H   0  0
   -2.9860    1.6253   -3.6643 H   0  0
   -1.3240    1.0396   -2.0176 H   0  0
   -2.9361    2.4016    0.2623 H   0  0
   -2.5233    0.7291    1.3159 H   0  0
   -4.1070    0.3162   -1.6799 H   0  0
   -4.8563    1.2086    0.6445 H   0  0
   -4.6152    3.3597   -1.6396 H   0  0
    0.0741    4.7750   -1.6015 H   0  0
    1.9709    5.3032   -3.1065 H   0  0
    3.2919    1.1818   -2.8767 H   0  0
    2.0607   -0.8482    0.2552 H   0  0
    2.9501    0.6810    0.0583 H   0  0
    1.3343    0.6810    0.8049 H   0  0
    3.9783    4.5707   -4.4738 H   0  0
   -6.8351    3.0299   -4.3813 H   0  0
   -5.6239    5.9128   -4.6785 H   0  0
   -6.2572    8.0069   -3.5082 H   0  0
   -7.3927    7.9141   -1.2885 H   0  0
   -7.9247    5.7042   -0.2570 H   0  0
   -7.3012    3.5994   -1.4179 H   0  0
  1  2  1  0
  3  2  1  0
  3  4  1  0
  5  4  1  0
  5  6  1  0
  7  5  1  0
  7  8  1  0
  7  9  1  0
  9 10  1  0
  9 11  1  0
 11  3  1  0
 11 12  1  0
  6 13  1  0
 15 16  1  0
 16 17  2  0
 17 18  1  0
 14 18  2  0
 14 13  1  0
 13 15  2  0
 14 19  1  0
 19 20  1  0
 17 21  1  0
 21 22  2  0
 23  1  1  0
 23 12  1  0
 23 24  1  0
 25 26  1  0
 26 27  2  0
 27 28  1  0
 28 29  2  0
 29 24  1  0
 25 24  2  0
  2 30  1  0
  2 31  1  0
  3 32  1  0
  5 33  1  0
  7 34  1  0
  8 35  1  0
  9 36  1  0
 10 37  1  0
 11 38  1  0
 15 39  1  0
 16 40  1  0
 18 41  1  0
 20 42  1  0
 20 43  1  0
 20 44  1  0
 21 45  1  0
 23 46  1  0
 25 47  1  0
 26 48  1  0
 27 49  1  0
 28 50  1  0
 29 51  1  0
M  END
> <Name>
TBS2010 - Intermediário - S - (4)

$$$$
TBS2010 - Intermediário - S - (7)
  SciTegic12132405553D

 47 50  0  0  0  0            999 V2000
   -4.8199    3.8404   -1.1255 O   0  0
   -3.5100    3.4904   -0.6260 C   0  0
   -3.5727    2.3367    0.4011 C   0  0  1  0  0  0
   -2.3035    2.1784    1.0669 O   0  0
   -2.2532    1.1146    2.0547 C   0  0  1  0  0  0
   -0.9893    1.1601    2.7586 O   0  0
   -3.3916    1.2463    3.1134 C   0  0  2  0  0  0
   -3.4506    0.0786    3.9294 O   0  0
   -4.7770    1.4984    2.4491 C   0  0  1  0  0  0
   -5.7708    1.7779    3.4336 O   0  0
   -4.6585    2.6782    1.4537 C   0  0  2  0  0  0
   -5.9085    2.9837    0.8035 O   0  0
    0.1037    1.0640    1.9373 C   0  0
    0.7283    2.2311    1.4468 C   0  0
    0.6100   -0.1995    1.5775 C   0  0
    1.6905   -0.2947    0.6849 C   0  0
    2.2728    0.8707    0.1545 C   0  0
    1.8086    2.1523    0.5339 C   0  0
    2.4206    3.3120   -0.0077 C   0  0
    2.0768    4.4717    0.3147 O   0  0
   -5.8137    4.1137   -0.1037 C   0  0  1  0  0  0
   -5.7006    5.4454    0.5765 C   0  0
   -5.0272    6.5347   -0.0283 C   0  0
   -4.9459    7.7842    0.6156 C   0  0
   -5.5401    7.9642    1.8770 C   0  0
   -6.2060    6.8945    2.4988 C   0  0
   -6.2954    5.6521    1.8460 C   0  0
   -2.9648    3.1246   -1.4961 H   0  0
   -3.1624    4.3790   -0.0991 H   0  0
   -3.7488    1.3811   -0.0929 H   0  0
   -2.3091    0.1913    1.4782 H   0  0
   -3.1565    2.0510    3.8101 H   0  0
   -3.4377    0.3339    4.8548 H   0  0
   -5.1566    0.5998    1.9627 H   0  0
   -5.3925    1.6715    4.3094 H   0  0
   -4.4436    3.6019    1.9911 H   0  0
    0.3714    3.2065    1.7776 H   0  0
    0.1650   -1.1048    1.9903 H   0  0
    2.0776   -1.2740    0.4037 H   0  0
    3.0925    0.7796   -0.5582 H   0  0
    3.2293    3.3120   -0.7385 H   0  0
   -6.7634    4.1807   -0.6343 H   0  0
   -4.5632    6.4092   -1.0067 H   0  0
   -4.4228    8.6124    0.1374 H   0  0
   -5.4844    8.9333    2.3729 H   0  0
   -6.6518    7.0280    3.4845 H   0  0
   -6.8335    4.8376    2.3310 H   0  0
  1  2  1  0
  3  2  1  0
  3  4  1  0
  5  4  1  0
  5  6  1  0
  7  5  1  0
  7  8  1  0
  7  9  1  0
  9 10  1  0
  9 11  1  0
 11  3  1  0
 11 12  1  0
  6 13  1  0
 15 16  1  0
 16 17  2  0
 17 18  1  0
 14 18  2  0
 14 13  1  0
 13 15  2  0
 18 19  1  0
 19 20  2  0
 21  1  1  0
 21 12  1  0
 21 22  1  0
 23 24  1  0
 24 25  2  0
 25 26  1  0
 26 27  2  0
 27 22  1  0
 23 22  2  0
  2 28  1  0
  2 29  1  0
  3 30  1  0
  5 31  1  0
  7 32  1  0
  8 33  1  0
  9 34  1  0
 10 35  1  0
 11 36  1  0
 14 37  1  0
 15 38  1  0
 16 39  1  0
 17 40  1  0
 19 41  1  0
 21 42  1  0
 23 43  1  0
 24 44  1  0
 25 45  1  0
 26 46  1  0
 27 47  1  0
M  END
> <Name>
TBS2010 - Intermediário - S - (7)

$$$$
TBS2010 - Intermediário - S - (12a)
  SciTegic12132405553D

 98101  0  0  0  0            999 V2000
   23.7655   27.4162   18.5951 O   0  0
   24.9823   27.5504   19.3628 C   0  0
   25.0693   26.4591   20.4532 C   0  0  1  0  0  0
   26.1808   26.7023   21.3362 O   0  0
   26.3507   25.7122   22.3833 C   0  0  1  0  0  0
   27.4341   26.1022   23.2596 O   0  0
   25.0604   25.5819   23.2457 C   0  0  2  0  0  0
   25.1892   24.5037   24.1730 O   0  0
   23.7964   25.3751   22.3599 C   0  0  1  0  0  0
   22.6262   25.4337   23.1901 O   0  0
   23.7542   26.4838   21.2749 C   0  0  2  0  0  0
   22.6214   26.3571   20.3882 O   0  0
   28.6303   26.2359   22.6058 C   0  0
   29.4911   25.1290   22.4484 C   0  0
   29.0008   27.4887   22.0812 C   0  0
   30.1859   27.6226   21.3362 C   0  0
   31.0320   26.5112   21.1134 C   0  0
   30.6675   25.2650   21.6818 C   0  0
   29.1750   23.9140   22.9978 O   0  0
   29.5952   23.7860   24.3687 C   0  0
   32.2093   26.6694   20.3383 C   0  0
   32.9878   25.7230   20.0848 O   0  0
   22.5477   27.4060   19.3851 C   0  0  1  0  0  0
   22.1324   28.7453   19.9107 C   0  0
   22.5358   29.9461   19.2779 C   0  0
   22.1649   31.1992   19.7964 C   0  0
   21.3624   31.2765   20.9469 C   0  0
   20.9341   30.0966   21.5805 C   0  0
   21.3012   28.8445   21.0539 C   0  0
   21.3646   25.0392   22.8466 C   0  0
   20.4384   25.8637   23.0203 O   0  0
   21.0383   23.6605   22.4201 C   0  0
   20.0714   22.9830   23.4254 C   0  0
   19.7815   21.4926   23.1049 C   0  0
   18.7646   20.8950   24.1120 C   0  0
   18.4176   19.4015   23.8679 C   0  0
   17.3751   18.8919   24.9026 C   0  0
   16.9688   17.4040   24.7186 C   0  0
   15.9306   16.9456   25.7817 C   0  0
   15.5098   15.4585   25.6288 C   0  0
   14.4756   15.0018   26.6973 C   0  0
   14.0706   13.5108   26.5279 C   0  0
   13.0374   13.0105   27.5766 C   0  0
   12.6609   11.5148   27.3693 C   0  0
   11.6277   10.9976   28.4092 C   0  0
   11.2637    9.5091   28.1887 C   0  0
   25.7903   27.3735   18.6529 H   0  0
   24.8996   28.5140   19.8654 H   0  0
   25.2778   25.4841   20.0127 H   0  0
   26.6286   24.7900   21.8729 H   0  0
   24.9418   26.4650   23.8735 H   0  0
   25.1483   24.8458   25.0691 H   0  0
   23.7592   24.3851   21.9053 H   0  0
   23.5822   27.4486   21.7521 H   0  0
   28.3672   28.3590   22.2527 H   0  0
   30.4514   28.5976   20.9274 H   0  0
   31.3043   24.3942   21.5263 H   0  0
   29.6744   22.7301   24.6273 H   0  0
   30.5655   24.2654   24.4976 H   0  0
   28.8637   24.2654   25.0192 H   0  0
   32.5475   27.6064   19.8958 H   0  0
   21.7417   27.1293   18.7055 H   0  0
   23.1436   29.9050   18.3741 H   0  0
   22.5002   32.1127   19.3054 H   0  0
   21.0731   32.2484   21.3465 H   0  0
   20.3187   30.1526   22.4784 H   0  0
   20.9366   27.9387   21.5383 H   0  0
   20.5036   23.7643   21.4759 H   0  0
   21.9795   23.1118   22.4558 H   0  0
   20.5889   22.9865   24.3847 H   0  0
   19.1188   23.5018   23.3181 H   0  0
   19.2959   21.4752   22.1292 H   0  0
   20.7180   20.9561   23.2572 H   0  0
   19.2580   20.9285   25.0833 H   0  0
   17.8362   21.4435   23.9531 H   0  0
   17.9334   19.3534   22.8926 H   0  0
   19.3334   18.8390   24.0500 H   0  0
   17.8697   18.9455   25.8724 H   0  0
   16.4695   19.4704   24.7199 H   0  0
   16.4644   17.3435   23.7542 H   0  0
   17.8698   16.8180   24.9001 H   0  0
   16.4364   17.0158   26.7447 H   0  0
   15.0309   17.5318   25.5947 H   0  0
   14.9999   15.3888   24.6679 H   0  0
   16.4101   14.8721   25.8118 H   0  0
   14.9827   15.0708   27.6597 H   0  0
   13.5725   15.5840   26.5142 H   0  0
   13.5677   13.4482   25.5629 H   0  0
   14.9783   12.9349   26.7078 H   0  0
   13.5362   13.0668   28.5441 H   0  0
   12.1255   13.5806   27.3995 H   0  0
   12.1644   11.4610   26.4004 H   0  0
   13.5745   10.9472   27.5458 H   0  0
   12.1215   11.0471   29.3797 H   0  0
   10.7113   11.5615   28.2346 H   0  0
   11.1436    9.0176   29.1542 H   0  0
   10.3312    9.4422   27.6284 H   0  0
   12.0602    9.0195   27.6284 H   0  0
  1  2  1  0
  3  2  1  0
  3  4  1  0
  5  4  1  0
  5  6  1  0
  7  5  1  0
  7  8  1  0
  7  9  1  0
  9 10  1  0
  9 11  1  0
 11  3  1  0
 11 12  1  0
  6 13  1  0
 15 16  1  0
 16 17  2  0
 17 18  1  0
 14 18  2  0
 14 13  1  0
 13 15  2  0
 14 19  1  0
 19 20  1  0
 17 21  1  0
 21 22  2  0
 23  1  1  0
 23 12  1  0
 23 24  1  0
 25 26  1  0
 26 27  2  0
 27 28  1  0
 28 29  2  0
 29 24  1  0
 25 24  2  0
 10 30  1  0
 30 31  2  0
 30 32  1  0
 32 33  1  0
 33 34  1  0
 34 35  1  0
 35 36  1  0
 36 37  1  0
 37 38  1  0
 38 39  1  0
 39 40  1  0
 40 41  1  0
 41 42  1  0
 42 43  1  0
 43 44  1  0
 44 45  1  0
 45 46  1  0
  2 47  1  0
  2 48  1  0
  3 49  1  0
  5 50  1  0
  7 51  1  0
  8 52  1  0
  9 53  1  0
 11 54  1  0
 15 55  1  0
 16 56  1  0
 18 57  1  0
 20 58  1  0
 20 59  1  0
 20 60  1  0
 21 61  1  0
 23 62  1  0
 25 63  1  0
 26 64  1  0
 27 65  1  0
 28 66  1  0
 29 67  1  0
 32 68  1  0
 32 69  1  0
 33 70  1  0
 33 71  1  0
 34 72  1  0
 34 73  1  0
 35 74  1  0
 35 75  1  0
 36 76  1  0
 36 77  1  0
 37 78  1  0
 37 79  1  0
 38 80  1  0
 38 81  1  0
 39 82  1  0
 39 83  1  0
 40 84  1  0
 40 85  1  0
 41 86  1  0
 41 87  1  0
 42 88  1  0
 42 89  1  0
 43 90  1  0
 43 91  1  0
 44 92  1  0
 44 93  1  0
 45 94  1  0
 45 95  1  0
 46 96  1  0
 46 97  1  0
 46 98  1  0
M  END
> <Name>
TBS2010 - Intermediário - S - (12a)

$$$$
TBS2010 - Intermediário - S - (13a)
  SciTegic12132405553D

 98101  0  0  0  0            999 V2000
    1.3630   28.7345    2.9916 O   0  0
    2.4465   28.9942    3.9161 C   0  0
    2.6141   27.8586    4.9534 C   0  0  1  0  0  0
    3.4892   28.2562    6.0314 O   0  0
    3.6899   27.2421    7.0535 C   0  0  1  0  0  0
    4.4768   27.7782    8.1419 O   0  0
    2.3423   26.7510    7.6648 C   0  0  2  0  0  0
    2.6126   25.6093    8.4909 O   0  0
    1.3102   26.3911    6.5545 C   0  0  1  0  0  0
    0.0227   26.1621    7.1271 O   0  0
    1.2160   27.5530    5.5430 C   0  0  2  0  0  0
    0.2740   27.2618    4.4882 O   0  0
    5.7082   28.2294    7.7501 C   0  0
    6.8250   27.3664    7.7474 C   0  0
    5.8615   29.5713    7.3523 C   0  0
    7.0981   30.0294    6.8661 C   0  0
    8.2078   29.1558    6.7709 C   0  0
    8.0575   27.8257    7.2367 C   0  0
    6.7073   26.0818    8.2099 O   0  0
    6.9818   25.9687    9.6189 C   0  0
    9.4219   29.6225    6.2097 C   0  0
   10.4257   28.8882    6.0598 O   0  0
    0.0881   28.3848    3.5954 C   0  0  1  0  0  0
   -0.6582   29.5291    4.2160 C   0  0
   -1.6144   29.3073    5.2429 C   0  0
   -2.2795   30.3891    5.8506 C   0  0
   -2.0213   31.7048    5.4269 C   0  0
   -1.0946   31.9366    4.3946 C   0  0
   -0.4188   30.8593    3.7944 C   0  0
    1.7388   24.9813    9.3261 C   0  0
    1.6001   23.7456    9.1780 O   0  0
    1.0537   25.6719   10.4439 C   0  0
    1.5156   25.0981   11.8083 C   0  0
    0.9448   25.8532   13.0389 C   0  0
    1.4524   25.2166   14.3615 C   0  0
    0.9215   25.8959   15.6535 C   0  0
    1.4537   25.1750   16.9246 C   0  0
    0.9472   25.7881   18.2557 C   0  0
    1.4932   25.0322   19.4991 C   0  0
    0.9871   25.6422   20.8335 C   0  0
    1.5242   24.9014   22.0884 C   0  0
    1.0061   25.5314   23.4105 C   0  0
    1.5330   24.8055   24.6780 C   0  0
    1.0091   25.4441   25.9926 C   0  0
    1.5389   24.7147   27.2570 C   0  0
    1.0068   25.3645   28.5558 C   0  0
    3.3452   29.0079    3.2995 H   0  0
    2.1444   29.8898    4.4591 H   0  0
    3.1019   26.9914    4.5082 H   0  0
    4.2545   26.4568    6.5509 H   0  0
    1.9086   27.4994    8.3281 H   0  0
    1.5644   25.4504    6.0660 H   0  0
    0.0916   26.1743    8.0846 H   0  0
    0.7938   28.4330    6.0283 H   0  0
    5.0186   30.2590    7.4210 H   0  0
    7.1973   31.0709    6.5603 H   0  0
    8.9062   27.1427    7.2014 H   0  0
    7.0357   24.9157    9.8952 H   0  0
    7.9324   26.4524    9.8439 H   0  0
    6.1853   26.4524   10.1843 H   0  0
    9.6000   30.6398    5.8612 H   0  0
   -0.5532   28.0520    2.7793 H   0  0
   -1.8411   28.2923    5.5693 H   0  0
   -2.9962   30.2074    6.6515 H   0  0
   -2.5377   32.5419    5.8968 H   0  0
   -0.8995   32.9550    4.0585 H   0  0
    0.2964   31.0569    2.9959 H   0  0
    1.3869   26.7087   10.3985 H   0  0
   -0.0043   25.4341   10.3334 H   0  0
    1.1031   24.0905   11.8606 H   0  0
    2.5947   25.2477   11.8424 H   0  0
    1.3578   26.8613   13.0021 H   0  0
   -0.1350   25.7056   13.0188 H   0  0
    1.0490   24.2041   14.3745 H   0  0
    2.5310   25.3736   14.3686 H   0  0
    1.3438   26.9007   15.6689 H   0  0
   -0.1599   25.7593   15.6511 H   0  0
    1.0432   24.1658   16.8886 H   0  0
    2.5334   25.3246   16.9219 H   0  0
    1.3642   26.7940   18.3037 H   0  0
   -0.1334   25.6452   18.2629 H   0  0
    1.0769   24.0260   19.4495 H   0  0
    2.5736   25.1760   19.4914 H   0  0
    1.4019   26.6491   20.8789 H   0  0
   -0.0931   25.4970   20.8386 H   0  0
    1.1080   23.8948   22.0480 H   0  0
    2.6047   25.0449   22.0865 H   0  0
    1.4215   26.5385   23.4466 H   0  0
   -0.0743   25.3872   23.4091 H   0  0
    1.1174   23.7984   24.6445 H   0  0
    2.6135   24.9493   24.6817 H   0  0
    1.4247   26.4512   26.0270 H   0  0
   -0.0714   25.3002   25.9899 H   0  0
    1.1233   23.7075   27.2277 H   0  0
    2.6193   24.8585   27.2648 H   0  0
    0.7181   24.5846   29.2604 H   0  0
    1.7871   25.9834   28.9986 H   0  0
    0.1401   25.9834   28.3237 H   0  0
  1  2  1  0
  3  2  1  0
  3  4  1  0
  5  4  1  0
  5  6  1  0
  7  5  1  0
  7  8  1  0
  7  9  1  0
  9 10  1  0
  9 11  1  0
 11  3  1  0
 11 12  1  0
  6 13  1  0
 15 16  1  0
 16 17  2  0
 17 18  1  0
 14 18  2  0
 14 13  1  0
 13 15  2  0
 14 19  1  0
 19 20  1  0
 17 21  1  0
 21 22  2  0
 23  1  1  0
 23 12  1  0
 23 24  1  0
 25 26  1  0
 26 27  2  0
 27 28  1  0
 28 29  2  0
 29 24  1  0
 25 24  2  0
 30 31  2  0
 30 32  1  0
 32 33  1  0
 33 34  1  0
 34 35  1  0
 35 36  1  0
 36 37  1  0
 37 38  1  0
 38 39  1  0
 39 40  1  0
 40 41  1  0
 41 42  1  0
 42 43  1  0
 43 44  1  0
 44 45  1  0
 45 46  1  0
 30  8  1  0
  2 47  1  0
  2 48  1  0
  3 49  1  0
  5 50  1  0
  7 51  1  0
  9 52  1  0
 10 53  1  0
 11 54  1  0
 15 55  1  0
 16 56  1  0
 18 57  1  0
 20 58  1  0
 20 59  1  0
 20 60  1  0
 21 61  1  0
 23 62  1  0
 25 63  1  0
 26 64  1  0
 27 65  1  0
 28 66  1  0
 29 67  1  0
 32 68  1  0
 32 69  1  0
 33 70  1  0
 33 71  1  0
 34 72  1  0
 34 73  1  0
 35 74  1  0
 35 75  1  0
 36 76  1  0
 36 77  1  0
 37 78  1  0
 37 79  1  0
 38 80  1  0
 38 81  1  0
 39 82  1  0
 39 83  1  0
 40 84  1  0
 40 85  1  0
 41 86  1  0
 41 87  1  0
 42 88  1  0
 42 89  1  0
 43 90  1  0
 43 91  1  0
 44 92  1  0
 44 93  1  0
 45 94  1  0
 45 95  1  0
 46 96  1  0
 46 97  1  0
 46 98  1  0
M  END
> <Name>
TBS2010 - Intermediário - S - (13a)

$$$$
TBS2010 - IntermediÃ¡rio - S - (14a)
  SciTegic12132405553D

145148  0  0  0  0            999 V2000
   10.9273    3.3182   -0.5194 O   0  0
   12.0153    3.4685    0.4261 C   0  0
   12.0729    2.2990    1.4400 C   0  0  1  0  0  0
   12.9581    2.5855    2.5411 O   0  0
   13.0419    1.5382    3.5484 C   0  0  1  0  0  0
   13.8547    1.9746    4.6630 O   0  0
   11.6483    1.1534    4.1257 C   0  0  2  0  0  0
   11.8032   -0.0330    4.9218 O   0  0
   10.6132    0.9211    2.9885 C   0  0  1  0  0  0
    9.2890    0.8749    3.5457 O   0  0
   10.6480    2.1066    2.0043 C   0  0  2  0  0  0
    9.7045    1.9088    0.9318 O   0  0
   15.1186    2.3357    4.2847 C   0  0
   16.1596    1.3837    4.2517 C   0  0
   15.3766    3.6686    3.9125 C   0  0
   16.6366    4.0290    3.4069 C   0  0
   17.6642    3.0649    3.2721 C   0  0
   17.4188    1.7473    3.7331 C   0  0
   15.9392    0.1024    4.6835 O   0  0
   16.1958   -0.0600    6.0908 C   0  0
   18.8939    3.4300    2.6712 C   0  0
   19.8281    2.6160    2.4889 O   0  0
    9.6189    3.0574    0.0587 C   0  0  1  0  0  0
    8.9324    4.2371    0.6787 C   0  0
    7.9782    4.0733    1.7170 C   0  0
    7.3729    5.1851    2.3292 C   0  0
    7.6909    6.4838    1.8972 C   0  0
    8.6082    6.6633    0.8470 C   0  0
    9.2205    5.5509    0.2413 C   0  0
   10.8596   -0.6223    5.7085 C   0  0
   10.6109   -1.8296    5.4875 O   0  0
   10.2341    0.0630    6.8633 C   0  0
   10.6592   -0.5917    8.2079 C   0  0
   10.1508    0.1537    9.4755 C   0  0
   10.6192   -0.5366   10.7889 C   0  0
   10.1359    0.1593   12.0933 C   0  0
   10.6196   -0.5966   13.3633 C   0  0
   10.1561    0.0368   14.7031 C   0  0
   10.6611   -0.7650   15.9363 C   0  0
   10.2055   -0.1461   17.2862 C   0  0
   10.7113   -0.9465   18.5188 C   0  0
   10.2589   -0.3295   19.8717 C   0  0
   10.7692   -1.1346   21.0988 C   0  0
   10.3169   -0.5184   22.4824 C   0  0
   10.7501   -1.2136   23.8279 C   0  0
   10.1758   -0.4137   25.1400 C   0  0
    8.2094    0.1859    3.0834 C   0  0
    7.1126    0.7893    3.1053 O   0  0
    8.2582   -1.2299    2.6548 C   0  0
    7.2656   -2.0790    3.4876 C   0  0
    7.2629   -3.5814    3.1122 C   0  0
    6.1798   -4.3325    3.9283 C   0  0
    6.0594   -5.8327    3.5692 C   0  0
    4.9430   -6.5075    4.4074 C   0  0
    4.7736   -8.0112    4.0888 C   0  0
    3.6607   -8.6679    4.9482 C   0  0
    3.5084  -10.1765    4.6300 C   0  0
    2.4102  -10.8723    5.4736 C   0  0
    2.2892  -12.3798    5.1289 C   0  0
    1.1949  -13.0917    5.9635 C   0  0
    1.0758  -14.5980    5.6165 C   0  0
   -0.0199  -15.3103    6.4517 C   0  0
   -0.1395  -16.8111    6.1065 C   0  0
   12.9215    3.4216   -0.1777 H   0  0
   11.7792    4.3738    0.9854 H   0  0
   12.4951    1.4058    0.9796 H   0  0
   13.5397    0.7151    3.0358 H   0  0
   11.2690    1.9173    4.8044 H   0  0
   10.7901   -0.0340    2.4940 H   0  0
   10.3077    3.0147    2.5019 H   0  0
   14.5979    4.4242    4.0161 H   0  0
   16.8182    5.0640    3.1173 H   0  0
   18.2119    1.0009    3.6881 H   0  0
   16.2397   -1.1221    6.3318 H   0  0
   17.1465    0.4095    6.3433 H   0  0
   15.3954    0.4095    6.6626 H   0  0
   19.1445    4.4297    2.3163 H   0  0
    8.9723    2.7905   -0.7773 H   0  0
    7.7046    3.0726    2.0513 H   0  0
    6.6573    5.0402    3.1385 H   0  0
    7.2283    7.3477    2.3744 H   0  0
    8.8456    7.6693    0.5009 H   0  0
    9.9253    5.7085   -0.5752 H   0  0
   10.6381    1.0753    6.8549 H   0  0
    9.1618   -0.0968    6.7509 H   0  0
   10.1760   -1.5685    8.2259 H   0  0
   11.7464   -0.5207    8.2396 H   0  0
   10.6248    1.1352    9.4619 H   0  0
    9.0639    0.0731    9.4603 H   0  0
   10.1494   -1.5202   10.7885 H   0  0
   11.7058   -0.4516   10.7950 H   0  0
   10.6196    1.1359   12.1161 H   0  0
    9.0481    0.0898   12.0920 H   0  0
   10.1460   -1.5775   13.3218 H   0  0
   11.7065   -0.5156   13.3596 H   0  0
   10.6348    1.0145   14.7585 H   0  0
    9.0688   -0.0390   14.7148 H   0  0
   10.1831   -1.7428   15.8770 H   0  0
   11.7483   -0.6882   15.9217 H   0  0
   10.6827    0.8321   17.3453 H   0  0
    9.1184   -0.2240   17.3015 H   0  0
   10.2332   -1.9242   18.4593 H   0  0
   11.7985   -0.8695   18.5018 H   0  0
   10.7365    0.6484   19.9324 H   0  0
    9.1718   -0.4072   19.8905 H   0  0
   10.2911   -2.1116   21.0285 H   0  0
   11.8560   -1.0563   21.0701 H   0  0
   10.7944    0.4608   22.5162 H   0  0
    9.2296   -0.5946   22.4747 H   0  0
   10.2722   -2.1932   23.8173 H   0  0
   11.8370   -1.1378   23.8588 H   0  0
    9.8477   -1.1338   25.8896 H   0  0
   10.9643    0.2120   25.5579 H   0  0
    9.3337    0.2120   24.8442 H   0  0
    7.9085   -1.2394    1.6225 H   0  0
    9.2635   -1.5773    2.8930 H   0  0
    7.6217   -2.0299    4.5166 H   0  0
    6.2720   -1.7076    3.2365 H   0  0
    6.9631   -3.6408    2.0659 H   0  0
    8.2260   -3.9832    3.4268 H   0  0
    6.5123   -4.3009    4.9659 H   0  0
    5.2279   -3.8821    3.6471 H   0  0
    5.7367   -5.8769    2.5290 H   0  0
    6.9979   -6.2989    3.8690 H   0  0
    5.2721   -6.4560    5.4452 H   0  0
    4.0101   -6.0303    4.1072 H   0  0
    4.4333   -8.0656    3.0547 H   0  0
    5.7081   -8.4903    4.3809 H   0  0
    3.9962   -8.6062    5.9835 H   0  0
    2.7244   -8.1965    4.6497 H   0  0
    3.1715  -10.2320    3.5949 H   0  0
    4.4502  -10.6410    4.9222 H   0  0
    2.7432  -10.8211    6.5103 H   0  0
    1.4650  -10.4147    5.1816 H   0  0
    1.9580  -12.4282    4.0916 H   0  0
    3.2359  -12.8346    5.4205 H   0  0
    1.5260  -13.0444    7.0009 H   0  0
    0.2479  -12.6373    5.6723 H   0  0
    0.7452  -14.6450    4.5789 H   0  0
    2.0228  -15.0522    5.9079 H   0  0
    0.3101  -15.2646    7.4895 H   0  0
   -0.9676  -14.8572    6.1607 H   0  0
   -0.1858  -17.3931    7.0270 H   0  0
   -1.0457  -16.9790    5.5245 H   0  0
    0.7287  -17.1203    5.5245 H   0  0
  1  2  1  0
  3  2  1  0
  3  4  1  0
  5  4  1  0
  5  6  1  0
  7  5  1  0
  7  8  1  0
  7  9  1  0
  9 10  1  0
  9 11  1  0
 11  3  1  0
 11 12  1  0
  6 13  1  0
 15 16  1  0
 16 17  2  0
 17 18  1  0
 14 18  2  0
 14 13  1  0
 13 15  2  0
 14 19  1  0
 19 20  1  0
 17 21  1  0
 21 22  2  0
 23  1  1  0
 23 12  1  0
 23 24  1  0
 25 26  1  0
 26 27  2  0
 27 28  1  0
 28 29  2  0
 29 24  1  0
 25 24  2  0
 30 31  2  0
 30 32  1  0
 32 33  1  0
 33 34  1  0
 34 35  1  0
 35 36  1  0
 36 37  1  0
 37 38  1  0
 38 39  1  0
 39 40  1  0
 40 41  1  0
 41 42  1  0
 42 43  1  0
 43 44  1  0
 44 45  1  0
 45 46  1  0
 30  8  1  0
 47 48  2  0
 47 49  1  0
 49 50  1  0
 50 51  1  0
 51 52  1  0
 52 53  1  0
 53 54  1  0
 54 55  1  0
 55 56  1  0
 56 57  1  0
 57 58  1  0
 58 59  1  0
 59 60  1  0
 60 61  1  0
 61 62  1  0
 62 63  1  0
 10 47  1  0
  2 64  1  0
  2 65  1  0
  3 66  1  0
  5 67  1  0
  7 68  1  0
  9 69  1  0
 11 70  1  0
 15 71  1  0
 16 72  1  0
 18 73  1  0
 20 74  1  0
 20 75  1  0
 20 76  1  0
 21 77  1  0
 23 78  1  0
 25 79  1  0
 26 80  1  0
 27 81  1  0
 28 82  1  0
 29 83  1  0
 32 84  1  0
 32 85  1  0
 33 86  1  0
 33 87  1  0
 34 88  1  0
 34 89  1  0
 35 90  1  0
 35 91  1  0
 36 92  1  0
 36 93  1  0
 37 94  1  0
 37 95  1  0
 38 96  1  0
 38 97  1  0
 39 98  1  0
 39 99  1  0
 40100  1  0
 40101  1  0
 41102  1  0
 41103  1  0
 42104  1  0
 42105  1  0
 43106  1  0
 43107  1  0
 44108  1  0
 44109  1  0
 45110  1  0
 45111  1  0
 46112  1  0
 46113  1  0
 46114  1  0
 49115  1  0
 49116  1  0
 50117  1  0
 50118  1  0
 51119  1  0
 51120  1  0
 52121  1  0
 52122  1  0
 53123  1  0
 53124  1  0
 54125  1  0
 54126  1  0
 55127  1  0
 55128  1  0
 56129  1  0
 56130  1  0
 57131  1  0
 57132  1  0
 58133  1  0
 58134  1  0
 59135  1  0
 59136  1  0
 60137  1  0
 60138  1  0
 61139  1  0
 61140  1  0
 62141  1  0
 62142  1  0
 63143  1  0
 63144  1  0
 63145  1  0
M  END
> <Name>
TBS2010 - IntermediÃ¡rio - S - (14a)

$$$$
TBS2010 - Intermediário - S - (15a)
  SciTegic12132405553D

 94 97  0  0  0  0            999 V2000
    9.2438   -2.9617   -5.0303 O   0  0
   10.0950   -3.0925   -3.8728 C   0  0
    9.5218   -4.1617   -2.9176 C   0  0  1  0  0  0
   10.2760   -4.2099   -1.6956 O   0  0
    9.8072   -5.1614   -0.7050 C   0  0  1  0  0  0
   10.6212   -5.0468    0.4865 O   0  0
    8.3125   -4.8938   -0.3396 C   0  0  2  0  0  0
    7.8207   -5.9025    0.5407 O   0  0
    7.4443   -4.8157   -1.6308 C   0  0  1  0  0  0
    6.0947   -4.3915   -1.3864 O   0  0
    8.0603   -3.7657   -2.5944 C   0  0  2  0  0  0
    7.2961   -3.6041   -3.8124 O   0  0
   11.9694   -5.1707    0.2462 C   0  0
   12.7335   -4.0447   -0.1328 C   0  0
   12.5987   -6.4235    0.3679 C   0  0
   13.9692   -6.5545    0.0849 C   0  0
   14.7181   -5.4329   -0.3176 C   0  0
   14.1104   -4.1613   -0.4439 C   0  0
   14.8740   -3.0499   -0.8822 C   0  0
   14.3876   -1.9052   -1.0220 O   0  0
    7.8632   -2.6332   -4.7310 C   0  0  1  0  0  0
    7.6728   -1.1918   -4.3739 C   0  0
    8.4116   -0.1975   -5.0609 C   0  0
    8.2743    1.1631   -4.7324 C   0  0
    7.3615    1.5577   -3.7387 C   0  0
    6.6035    0.5866   -3.0621 C   0  0
    6.7517   -0.7758   -3.3813 C   0  0
    4.9767   -5.1155   -1.6778 C   0  0
    4.8919   -6.3281   -1.3683 O   0  0
    3.9167   -4.4574   -2.4658 C   0  0
    3.3018   -3.1783   -1.8305 C   0  0
    2.7458   -2.2094   -2.9150 C   0  0
    1.8034   -1.1153   -2.3523 C   0  0
    1.5145    0.0129   -3.3842 C   0  0
    0.4296    1.0070   -2.8898 C   0  0
    0.1941    2.2038   -3.8549 C   0  0
   -0.9685    3.1206   -3.3812 C   0  0
   -1.2450    4.3233   -4.3266 C   0  0
   -2.4637    5.1759   -3.8686 C   0  0
   -2.7782    6.3726   -4.8116 C   0  0
   -4.0124    7.1976   -4.3497 C   0  0
   -4.3437    8.4014   -5.2786 C   0  0
   -5.5794    9.1967   -4.7708 C   0  0
   -5.9703   10.4154   -5.6379 C   0  0
   11.0483   -3.4600   -4.2524 H   0  0
   10.0455   -2.1294   -3.3647 H   0  0
    9.6166   -5.1642   -3.3350 H   0  0
    9.9649   -6.1542   -1.1265 H   0  0
    8.2102   -3.9830    0.2503 H   0  0
    7.9552   -5.6267    1.4503 H   0  0
    7.3473   -5.8203   -2.0422 H   0  0
    7.9973   -2.7732   -2.1482 H   0  0
   12.2520   -3.0682   -0.1863 H   0  0
   12.0232   -7.2943    0.6821 H   0  0
   14.4521   -7.5274    0.1777 H   0  0
   15.7800   -5.5502   -0.5339 H   0  0
   15.9338   -3.0780   -1.1355 H   0  0
    7.2811   -2.7659   -5.6430 H   0  0
    9.0986   -0.4846   -5.8570 H   0  0
    8.8755    1.9119   -5.2482 H   0  0
    7.2420    2.6131   -3.4936 H   0  0
    5.8990    0.8907   -2.2880 H   0  0
    6.1478   -1.5152   -2.8552 H   0  0
    4.4173   -4.1386   -3.3801 H   0  0
    3.1158   -5.1954   -2.5119 H   0  0
    2.4434   -3.5095   -1.2460 H   0  0
    4.1235   -2.6537   -1.3428 H   0  0
    3.6104   -1.6788   -3.3138 H   0  0
    2.1295   -2.8203   -3.5745 H   0  0
    0.8490   -1.6073   -2.1648 H   0  0
    2.3445   -0.6449   -1.5313 H   0  0
    2.4357    0.5893   -3.4697 H   0  0
    1.0957   -0.4788   -4.2623 H   0  0
   -0.5045    0.4455   -2.8764 H   0  0
    0.8194    1.4385   -1.9679 H   0  0
    1.0976    2.8119   -3.8113 H   0  0
   -0.1267    1.7716   -4.8027 H   0  0
   -1.8664    2.5035   -3.4143 H   0  0
   -0.6396    3.5540   -2.4367 H   0  0
   -0.3741    4.9743   -4.2500 H   0  0
   -1.5210    3.8934   -5.2895 H   0  0
   -3.3286    4.5152   -3.9268 H   0  0
   -2.1775    5.6162   -2.9135 H   0  0
   -1.9231    7.0448   -4.7412 H   0  0
   -3.0504    5.9359   -5.7725 H   0  0
   -4.8652    6.5225   -4.4206 H   0  0
   -3.7381    7.6300   -3.3874 H   0  0
   -3.4945    9.0816   -5.2129 H   0  0
   -4.6283    7.9763   -6.2410 H   0  0
   -6.4218    8.5084   -4.8392 H   0  0
   -5.2888    9.6082   -3.8042 H   0  0
   -6.2383   11.2507   -4.9909 H   0  0
   -5.1267   10.6993   -6.2671 H   0  0
   -6.8216   10.1556   -6.2671 H   0  0
  1  2  1  0
  3  2  1  0
  3  4  1  0
  5  4  1  0
  5  6  1  0
  7  5  1  0
  7  8  1  0
  7  9  1  0
  9 10  1  0
  9 11  1  0
 11  3  1  0
 11 12  1  0
  6 13  1  0
 15 16  1  0
 16 17  2  0
 17 18  1  0
 14 18  2  0
 14 13  1  0
 13 15  2  0
 18 19  1  0
 19 20  2  0
 21  1  1  0
 21 12  1  0
 21 22  1  0
 23 24  1  0
 24 25  2  0
 25 26  1  0
 26 27  2  0
 27 22  1  0
 23 22  2  0
 10 28  1  0
 28 30  1  0
 30 31  1  0
 31 32  1  0
 32 33  1  0
 33 34  1  0
 34 35  1  0
 35 36  1  0
 36 37  1  0
 37 38  1  0
 38 39  1  0
 39 40  1  0
 40 41  1  0
 41 42  1  0
 42 43  1  0
 43 44  1  0
 28 29  2  0
  2 45  1  0
  2 46  1  0
  3 47  1  0
  5 48  1  0
  7 49  1  0
  8 50  1  0
  9 51  1  0
 11 52  1  0
 14 53  1  0
 15 54  1  0
 16 55  1  0
 17 56  1  0
 19 57  1  0
 21 58  1  0
 23 59  1  0
 24 60  1  0
 25 61  1  0
 26 62  1  0
 27 63  1  0
 30 64  1  0
 30 65  1  0
 31 66  1  0
 31 67  1  0
 32 68  1  0
 32 69  1  0
 33 70  1  0
 33 71  1  0
 34 72  1  0
 34 73  1  0
 35 74  1  0
 35 75  1  0
 36 76  1  0
 36 77  1  0
 37 78  1  0
 37 79  1  0
 38 80  1  0
 38 81  1  0
 39 82  1  0
 39 83  1  0
 40 84  1  0
 40 85  1  0
 41 86  1  0
 41 87  1  0
 42 88  1  0
 42 89  1  0
 43 90  1  0
 43 91  1  0
 44 92  1  0
 44 93  1  0
 44 94  1  0
M  END
> <Name>
TBS2010 - Intermediário - S - (15a)

$$$$
TBS2010 - Intermediário - S - (16a)
  SciTegic12132405553D

 94 97  0  0  0  0            999 V2000
    4.3709   -0.0177   -6.6843 O   0  0
    5.3030    0.2019   -5.5968 C   0  0
    5.1917   -0.9112   -4.5280 C   0  0  1  0  0  0
    5.9842   -0.6244   -3.3611 O   0  0
    5.9168   -1.6354   -2.3151 C   0  0  1  0  0  0
    6.6682   -1.1934   -1.1631 O   0  0
    4.4504   -1.8952   -1.8447 C   0  0  2  0  0  0
    4.3957   -3.0516   -0.9893 O   0  0
    3.5062   -2.1044   -3.0681 C   0  0  1  0  0  0
    2.1366   -2.0785   -2.6653 O   0  0
    3.7037   -0.9956   -4.1208 C   0  0  2  0  0  0
    2.8964   -1.2512   -5.2881 O   0  0
    7.9779   -0.8963   -1.4310 C   0  0
    8.3448    0.4213   -1.7771 C   0  0
    8.9658   -1.8945   -1.3408 C   0  0
   10.3081   -1.5790   -1.6114 C   0  0
   10.6676   -0.2669   -1.9739 C   0  0
    9.6906    0.7541   -2.0655 C   0  0
   10.0680    2.0686   -2.4391 C   0  0
    9.2440    3.0061   -2.5454 O   0  0
    2.9856   -0.2054   -6.2850 C   0  0  1  0  0  0
    2.2416    1.0311   -5.8872 C   0  0
    2.7110    2.3268   -6.2110 C   0  0
    2.0469    3.4745   -5.7374 C   0  0
    0.8750    3.3504   -4.9711 C   0  0
    0.3632    2.0722   -4.6908 C   0  0
    1.0340    0.9242   -5.1524 C   0  0
    3.3255   -3.3854   -0.2076 C   0  0
    3.1742   -2.8303    0.9036 O   0  0
    2.3671   -4.4093   -0.6637 C   0  0
    2.6349   -5.8248   -0.1012 C   0  0
    1.8458   -6.8913   -0.9042 C   0  0
    2.0996   -8.3283   -0.3954 C   0  0
    1.3920   -9.3806   -1.2860 C   0  0
    1.6445  -10.8234   -0.7865 C   0  0
    0.8823  -11.8830   -1.6257 C   0  0
    1.0904  -13.3199   -1.0821 C   0  0
    0.2979  -14.3852   -1.8861 C   0  0
    0.4946  -15.8172   -1.3215 C   0  0
   -0.2898  -16.9042   -2.1061 C   0  0
   -0.0680  -18.3257   -1.5178 C   0  0
   -0.8356  -19.4379   -2.2831 C   0  0
   -0.6008  -20.8533   -1.6847 C   0  0
   -1.3617  -21.9652   -2.4441 C   0  0
    6.2920    0.1261   -6.0486 H   0  0
    4.9858    1.1359   -5.1330 H   0  0
    5.6093   -1.8511   -4.8890 H   0  0
    6.3953   -2.5173   -2.7410 H   0  0
    4.1025   -1.0721   -1.2205 H   0  0
    3.6743   -3.0949   -3.4908 H   0  0
    2.0849   -2.0776   -1.7067 H   0  0
    3.3439   -0.0429   -3.7323 H   0  0
    7.5770    1.1936   -1.8223 H   0  0
    8.6913   -2.9118   -1.0615 H   0  0
   11.0718   -2.3534   -1.5399 H   0  0
   11.7123   -0.0394   -2.1856 H   0  0
   11.0853    2.3879   -2.6655 H   0  0
    2.4838   -0.5492   -7.1895 H   0  0
    3.5975    2.4425   -6.8346 H   0  0
    2.4422    4.4644   -5.9652 H   0  0
    0.3666    4.2391   -4.5970 H   0  0
   -0.5561    1.9709   -4.1139 H   0  0
    0.6136   -0.0584   -4.9385 H   0  0
    1.4056   -4.0900   -0.2617 H   0  0
    2.5145   -4.4685   -1.7420 H   0  0
    3.6923   -6.0291   -0.2688 H   0  0
    2.2312   -5.8366    0.9112 H   0  0
    0.7905   -6.6892   -0.7213 H   0  0
    2.2389   -6.8580   -1.9204 H   0  0
    3.1698   -8.5055   -0.5014 H   0  0
    1.6312   -8.3919    0.5868 H   0  0
    0.3221   -9.2033   -1.1771 H   0  0
    1.8585   -9.3124   -2.2688 H   0  0
    2.7055  -11.0164   -0.9446 H   0  0
    1.2253  -10.8727    0.2184 H   0  0
   -0.1782  -11.6627   -1.5035 H   0  0
    1.3317  -11.8657   -2.6186 H   0  0
    2.1451  -13.5497   -1.2335 H   0  0
    0.6702  -13.3257   -0.0764 H   0  0
   -0.7567  -14.1470   -1.7481 H   0  0
    0.7286  -14.3922   -2.8874 H   0  0
    1.5502  -16.0508   -1.4606 H   0  0
    0.0669  -15.8044   -0.3190 H   0  0
   -1.3466  -16.6777   -1.9650 H   0  0
    0.1349  -16.9204   -3.1098 H   0  0
    0.9908  -18.5447   -1.6553 H   0  0
   -0.4944  -18.3044   -0.5149 H   0  0
   -1.8951  -19.2232   -2.1438 H   0  0
   -0.4115  -19.4604   -3.2870 H   0  0
    0.4589  -21.0681   -1.8231 H   0  0
   -1.0260  -20.8317   -0.6814 H   0  0
   -1.8254  -22.6428   -1.7273 H   0  0
   -2.1324  -21.5156   -3.0701 H   0  0
   -0.6635  -22.5208   -3.0701 H   0  0
  1  2  1  0
  3  2  1  0
  3  4  1  0
  5  4  1  0
  5  6  1  0
  7  5  1  0
  7  8  1  0
  7  9  1  0
  9 10  1  0
  9 11  1  0
 11  3  1  0
 11 12  1  0
  6 13  1  0
 15 16  1  0
 16 17  2  0
 17 18  1  0
 14 18  2  0
 14 13  1  0
 13 15  2  0
 18 19  1  0
 19 20  2  0
 21  1  1  0
 21 12  1  0
 21 22  1  0
 23 24  1  0
 24 25  2  0
 25 26  1  0
 26 27  2  0
 27 22  1  0
 23 22  2  0
 28 30  1  0
 30 31  1  0
 31 32  1  0
 32 33  1  0
 33 34  1  0
 34 35  1  0
 35 36  1  0
 36 37  1  0
 37 38  1  0
 38 39  1  0
 39 40  1  0
 40 41  1  0
 41 42  1  0
 42 43  1  0
 43 44  1  0
 28 29  2  0
 28  8  1  0
  2 45  1  0
  2 46  1  0
  3 47  1  0
  5 48  1  0
  7 49  1  0
  9 50  1  0
 10 51  1  0
 11 52  1  0
 14 53  1  0
 15 54  1  0
 16 55  1  0
 17 56  1  0
 19 57  1  0
 21 58  1  0
 23 59  1  0
 24 60  1  0
 25 61  1  0
 26 62  1  0
 27 63  1  0
 30 64  1  0
 30 65  1  0
 31 66  1  0
 31 67  1  0
 32 68  1  0
 32 69  1  0
 33 70  1  0
 33 71  1  0
 34 72  1  0
 34 73  1  0
 35 74  1  0
 35 75  1  0
 36 76  1  0
 36 77  1  0
 37 78  1  0
 37 79  1  0
 38 80  1  0
 38 81  1  0
 39 82  1  0
 39 83  1  0
 40 84  1  0
 40 85  1  0
 41 86  1  0
 41 87  1  0
 42 88  1  0
 42 89  1  0
 43 90  1  0
 43 91  1  0
 44 92  1  0
 44 93  1  0
 44 94  1  0
M  END
> <Name>
TBS2010 - Intermediário - S - (16a)

$$$$
TBS2010 - Intermediário - S - (17a)
  SciTegic12132405553D

141144  0  0  0  0            999 V2000
   -0.6499    6.4993   -7.0976 O   0  0
    0.3101    6.5818   -6.0198 C   0  0
   -0.0656    5.6498   -4.8415 C   0  0  1  0  0  0
    0.7295    5.9343   -3.6769 O   0  0
    0.4398    5.1111   -2.5133 C   0  0  1  0  0  0
    1.2298    5.5537   -1.3843 O   0  0
   -1.0611    5.2020   -2.0951 C   0  0  2  0  0  0
   -1.3267    4.1955   -1.1019 O   0  0
   -2.0003    5.0104   -3.3240 C   0  0  1  0  0  0
   -3.3383    5.4038   -2.9784 O   0  0
   -1.5456    5.9181   -4.4884 C   0  0  2  0  0  0
   -2.3711    5.7259   -5.6546 O   0  0
    2.5742    5.5626   -1.6419 C   0  0
    3.3632    4.4377   -1.3381 C   0  0
    3.1718    6.7019   -2.2206 C   0  0
    4.5487    6.7160   -2.5471 C   0  0
    5.3216    5.5687   -2.2467 C   0  0
    4.7351    4.4414   -1.6421 C   0  0
    5.1505    7.8344   -3.1732 C   0  0
    4.5230    8.8890   -3.4242 O   0  0
   -2.0439    6.6480   -6.7213 C   0  0  1  0  0  0
   -2.4774    8.0559   -6.4536 C   0  0
   -1.8269    9.1472   -7.0742 C   0  0
   -2.2357   10.4715   -6.8289 C   0  0
   -3.3013   10.7270   -5.9474 C   0  0
   -3.9668    9.6592   -5.3241 C   0  0
   -3.5573    8.3373   -5.5769 C   0  0
   -2.4517    4.0317   -0.3415 C   0  0
   -2.9664    2.8905   -0.3395 O   0  0
   -3.0073    5.0814    0.5467 C   0  0
   -2.9005    4.6866    2.0463 C   0  0
   -3.3482    5.8005    3.0388 C   0  0
   -3.2103    5.3420    4.5200 C   0  0
   -3.6409    6.3981    5.5800 C   0  0
   -3.5007    5.8558    7.0349 C   0  0
   -3.9328    6.8538    8.1470 C   0  0
   -3.7840    6.2573    9.5790 C   0  0
   -4.2138    7.2384   10.7063 C   0  0
   -4.0647    6.6452   12.1393 C   0  0
   -4.4979    7.6376   13.2927 C   0  0
   -4.3638    7.0732   14.8350 C   0  0
   -4.8155    8.1319   15.8758 C   0  0
   -4.7031    7.6356   17.3437 C   0  0
   -5.1543    8.6940   18.3765 C   0  0
   -4.5137    4.8862   -3.4356 C   0  0
   -5.4264    5.7123   -3.6641 O   0  0
   -4.7895    3.4388   -3.5829 C   0  0
   -6.0332    3.0201   -2.7606 C   0  0
   -6.3667    1.5068   -2.8483 C   0  0
   -7.6847    1.1921   -2.0909 C   0  0
   -8.1328   -0.2886   -2.1765 C   0  0
   -9.4688   -0.5090   -1.4169 C   0  0
   -9.9692   -1.9728   -1.4725 C   0  0
  -11.2997   -2.1616   -0.6954 C   0  0
  -11.7987   -3.6286   -0.7380 C   0  0
  -13.1244   -3.8487    0.0401 C   0  0
  -13.5927   -5.3296   -0.0194 C   0  0
  -14.9179   -5.5882    0.7496 C   0  0
  -15.3736   -7.0730    0.6803 C   0  0
  -16.6979   -7.3313    1.4481 C   0  0
  -17.1524   -8.8056    1.3801 C   0  0
    1.2437    6.2132   -6.4446 H   0  0
    0.2429    7.6086   -5.6600 H   0  0
    0.1512    4.6084   -5.0794 H   0  0
    0.7517    4.1061   -2.7974 H   0  0
   -1.2798    6.1543   -1.6120 H   0  0
   -2.0396    3.9600   -3.6125 H   0  0
   -1.6981    6.9628   -4.2175 H   0  0
    2.9120    3.5641   -0.8676 H   0  0
    2.5616    7.5832   -2.4181 H   0  0
    6.3851    5.5531   -2.4847 H   0  0
    5.3452    3.5688   -1.4086 H   0  0
    6.1917    7.8885   -3.4910 H   0  0
   -2.6205    6.3411   -7.5939 H   0  0
   -0.9950    8.9643   -7.7543 H   0  0
   -1.7266   11.2997   -7.3218 H   0  0
   -3.6115   11.7526   -5.7474 H   0  0
   -4.7980    9.8557   -4.6468 H   0  0
   -4.0844    7.5190   -5.0862 H   0  0
   -2.3702    5.9533    0.3984 H   0  0
   -4.0686    5.1343    0.3037 H   0  0
   -3.6042    3.8659    2.1855 H   0  0
   -1.8382    4.5315    2.2350 H   0  0
   -2.6486    6.6260    2.9080 H   0  0
   -4.4129    5.9556    2.8647 H   0  0
   -3.9064    4.5112    4.6351 H   0  0
   -2.1435    5.1853    4.6796 H   0  0
   -2.9339    7.2231    5.4922 H   0  0
   -4.7049    6.5729    5.4206 H   0  0
   -4.1959    5.0193    7.1057 H   0  0
   -2.4338    5.6922    7.1867 H   0  0
   -3.2334    7.6880    8.0922 H   0  0
   -4.9991    7.0260    8.0000 H   0  0
   -4.4815    5.4212    9.6293 H   0  0
   -2.7171    6.0864    9.7230 H   0  0
   -3.5168    8.0749   10.6548 H   0  0
   -5.2808    7.4084   10.5623 H   0  0
   -4.7619    5.8084   12.1826 H   0  0
   -2.9970    6.4724   12.2739 H   0  0
   -3.7972    8.4688   13.2132 H   0  0
   -5.5617    7.8035   13.1231 H   0  0
   -5.0685    6.2486   14.9422 H   0  0
   -3.3037    6.9133   15.0320 H   0  0
   -4.1130    8.9604   15.7844 H   0  0
   -5.8778    8.2956   15.6947 H   0  0
   -5.4058    6.8076   17.4376 H   0  0
   -3.6411    7.4724   17.5272 H   0  0
   -4.9911    8.3113   19.3840 H   0  0
   -4.5762    9.6075   18.2368 H   0  0
   -6.2136    8.9095   18.2368 H   0  0
   -5.0342    3.2925   -4.6349 H   0  0
   -3.9291    2.9306   -3.1477 H   0  0
   -5.7763    3.2084   -1.7182 H   0  0
   -6.8774    3.5378   -3.2160 H   0  0
   -6.5543    1.2911   -3.9001 H   0  0
   -5.5715    0.9829   -2.3179 H   0  0
   -7.4720    1.3753   -1.0376 H   0  0
   -8.4614    1.7649   -2.5976 H   0  0
   -8.3380   -0.4881   -3.2282 H   0  0
   -7.3770   -0.8703   -1.6488 H   0  0
   -9.2552   -0.3059   -0.3675 H   0  0
  -10.2164    0.0826   -1.9453 H   0  0
  -10.1947   -2.1774   -2.5191 H   0  0
   -9.2221   -2.5694   -0.9491 H   0  0
  -11.0752   -1.9475    0.3495 H   0  0
  -12.0478   -1.5710   -1.2242 H   0  0
  -12.0260   -3.8370   -1.7835 H   0  0
  -11.0434   -4.2168   -0.2168 H   0  0
  -12.9017   -3.6406    1.0867 H   0  0
  -13.8843   -3.2668   -0.4815 H   0  0
  -13.8106   -5.5329   -1.0679 H   0  0
  -12.8278   -5.9067    0.5001 H   0  0
  -14.7017   -5.3873    1.7989 H   0  0
  -15.6846   -5.0124    0.2312 H   0  0
  -15.5896   -7.2743   -0.3690 H   0  0
  -14.6074   -7.6490    1.1992 H   0  0
  -16.4836   -7.1319    2.4981 H   0  0
  -17.4659   -6.7568    0.9301 H   0  0
  -17.2726   -9.1957    2.3908 H   0  0
  -18.1031   -8.8687    0.8508 H   0  0
  -16.4021   -9.3930    0.8508 H   0  0
  1  2  1  0
  3  2  1  0
  3  4  1  0
  5  4  1  0
  5  6  1  0
  7  5  1  0
  7  8  1  0
  7  9  1  0
  9 10  1  0
  9 11  1  0
 11  3  1  0
 11 12  1  0
  6 13  1  0
 15 16  1  0
 16 17  2  0
 17 18  1  0
 14 18  2  0
 14 13  1  0
 13 15  2  0
 19 20  2  0
 21  1  1  0
 21 12  1  0
 21 22  1  0
 23 24  1  0
 24 25  2  0
 25 26  1  0
 26 27  2  0
 27 22  1  0
 23 22  2  0
 28 29  2  0
 28 30  1  0
 30 31  1  0
 31 32  1  0
 32 33  1  0
 33 34  1  0
 34 35  1  0
 35 36  1  0
 36 37  1  0
 37 38  1  0
 38 39  1  0
 39 40  1  0
 40 41  1  0
 41 42  1  0
 42 43  1  0
 43 44  1  0
 28  8  1  0
 45 46  2  0
 45 47  1  0
 47 48  1  0
 48 49  1  0
 49 50  1  0
 50 51  1  0
 51 52  1  0
 52 53  1  0
 53 54  1  0
 54 55  1  0
 55 56  1  0
 56 57  1  0
 57 58  1  0
 58 59  1  0
 59 60  1  0
 60 61  1  0
 10 45  1  0
 19 16  1  0
  2 62  1  0
  2 63  1  0
  3 64  1  0
  5 65  1  0
  7 66  1  0
  9 67  1  0
 11 68  1  0
 14 69  1  0
 15 70  1  0
 17 71  1  0
 18 72  1  0
 19 73  1  0
 21 74  1  0
 23 75  1  0
 24 76  1  0
 25 77  1  0
 26 78  1  0
 27 79  1  0
 30 80  1  0
 30 81  1  0
 31 82  1  0
 31 83  1  0
 32 84  1  0
 32 85  1  0
 33 86  1  0
 33 87  1  0
 34 88  1  0
 34 89  1  0
 35 90  1  0
 35 91  1  0
 36 92  1  0
 36 93  1  0
 37 94  1  0
 37 95  1  0
 38 96  1  0
 38 97  1  0
 39 98  1  0
 39 99  1  0
 40100  1  0
 40101  1  0
 41102  1  0
 41103  1  0
 42104  1  0
 42105  1  0
 43106  1  0
 43107  1  0
 44108  1  0
 44109  1  0
 44110  1  0
 47111  1  0
 47112  1  0
 48113  1  0
 48114  1  0
 49115  1  0
 49116  1  0
 50117  1  0
 50118  1  0
 51119  1  0
 51120  1  0
 52121  1  0
 52122  1  0
 53123  1  0
 53124  1  0
 54125  1  0
 54126  1  0
 55127  1  0
 55128  1  0
 56129  1  0
 56130  1  0
 57131  1  0
 57132  1  0
 58133  1  0
 58134  1  0
 59135  1  0
 59136  1  0
 60137  1  0
 60138  1  0
 61139  1  0
 61140  1  0
 61141  1  0
M  END
> <Name>
TBS2010 - Intermediário - S - (17a)

$$$$
TBS2010 - Produto - (12b)
  SciTegic12132405553D

 87 88  0  0  0  0            999 V2000
   15.1085    4.2235    3.9868 O   0  0
   13.7493    3.8616    4.2053 C   0  0
   13.5548    2.3262    4.0938 C   0  0  1  0  0  0
   14.4102    1.6998    5.0726 O   0  0
   14.4132    0.2502    5.0408 C   0  0  1  0  0  0
   15.3117   -0.2561    6.0528 O   0  0
   12.9888   -0.2883    5.3438 C   0  0  2  0  0  0
   12.9586   -1.7146    5.2740 O   0  0
   11.9403    0.3386    4.3789 C   0  0  1  0  0  0
   10.5958   -0.0878    4.6759 O   0  0
   12.0813    1.8909    4.3462 C   0  0  2  0  0  0
   11.1981    2.4397    3.3679 O   0  0
   16.6091    0.1388    5.8521 C   0  0
   17.4693   -0.6008    5.0103 C   0  0
   17.0868    1.3014    6.4862 C   0  0
   18.3885    1.7653    6.2297 C   0  0
   19.2437    1.0692    5.3435 C   0  0
   18.7740   -0.1312    4.7566 C   0  0
   17.0331   -1.7448    4.3974 O   0  0
   17.1123   -2.9031    5.2460 C   0  0
   20.5288    1.5946    5.0576 C   0  0
   21.3237    1.0458    4.2607 O   0  0
    9.9478   -0.0407    5.8764 C   0  0
    9.8393   -1.1067    6.5228 O   0  0
    9.3000    1.1893    6.3696 C   0  0
    7.7525    1.1338    6.3470 C   0  0
    7.1301    2.5508    6.4876 C   0  0
    5.5899    2.5445    6.3319 C   0  0
    4.9684    3.9582    6.4725 C   0  0
    3.4247    3.9168    6.3591 C   0  0
    2.7667    5.3029    6.5730 C   0  0
    1.2206    5.2234    6.5069 C   0  0
    0.5286    6.5916    6.7377 C   0  0
   -1.0186    6.4831    6.6700 C   0  0
   -1.7349    7.8407    6.8942 C   0  0
   -3.2822    7.7258    6.8210 C   0  0
   -3.9849    9.0910    7.0444 C   0  0
   -5.5319    8.9966    6.9739 C   0  0
   -6.2154   10.3643    7.1980 C   0  0
   15.5483    4.3406    4.8320 H   0  0
   13.5450    4.1520    5.2358 H   0  0
   13.2006    4.3298    3.3881 H   0  0
   13.8656    1.9787    3.1085 H   0  0
   14.7970   -0.0434    4.0637 H   0  0
   12.7209   -0.0860    6.3808 H   0  0
   12.9509   -2.0783    6.1624 H   0  0
   12.0667   -0.0686    3.3758 H   0  0
   11.7317    2.3333    5.2790 H   0  0
   10.4733    2.8899    3.8078 H   0  0
   16.4453    1.8453    7.1796 H   0  0
   18.7377    2.6727    6.7223 H   0  0
   19.4278   -0.7034    4.0984 H   0  0
   17.0909   -2.5908    6.2901 H   0  0
   16.2651   -3.5590    5.0455 H   0  0
   18.0409   -3.4376    5.0455 H   0  0
   20.9440    2.5047    5.4905 H   0  0
    9.5967    1.2621    7.4159 H   0  0
    9.5971    1.9649    5.6637 H   0  0
    7.4740    0.7719    5.3572 H   0  0
    7.4536    0.5766    7.2349 H   0  0
    7.3275    2.8686    7.5114 H   0  0
    7.5145    3.1353    5.6518 H   0  0
    5.3917    2.2273    5.3080 H   0  0
    5.2048    1.9602    7.1676 H   0  0
    5.1917    4.2921    7.4858 H   0  0
    5.3224    4.5352    5.6181 H   0  0
    3.2061    3.6352    5.3291 H   0  0
    3.0793    3.2894    7.1807 H   0  0
    3.0139    5.6045    7.5908 H   0  0
    3.0770    5.9214    5.7308 H   0  0
    0.9787    4.9331    5.4845 H   0  0
    0.9171    4.5891    7.3398 H   0  0
    0.7691    6.8852    7.7595 H   0  0
    0.8263    7.2271    5.9036 H   0  0
   -1.2546    6.1843    5.6487 H   0  0
   -1.3122    5.8474    7.5054 H   0  0
   -1.5023    8.1384    7.9166 H   0  0
   -1.4398    8.4779    6.0605 H   0  0
   -3.5169    7.4275    5.7993 H   0  0
   -3.5797    7.0914    7.6560 H   0  0
   -3.7481    9.3873    8.0662 H   0  0
   -3.6840    9.7241    6.2097 H   0  0
   -5.7730    8.7025    5.9524 H   0  0
   -5.8371    8.3661    7.8090 H   0  0
   -6.3094   10.5525    8.2675 H   0  0
   -5.6132   11.1504    6.7424 H   0  0
   -7.2055   10.3548    6.7424 H   0  0
  1  2  1  0
  3  2  1  0
  3  4  1  0
  4  5  1  0
  5  6  1  0
  5  7  1  0
  7  8  1  0
  7  9  1  0
  9 10  1  0
  9 11  1  0
  3 11  1  0
 11 12  1  0
  6 13  1  0
 15 16  1  0
 16 17  2  0
 17 18  1  0
 14 18  2  0
 14 13  1  0
 13 15  2  0
 14 19  1  0
 19 20  1  0
 17 21  1  0
 21 22  2  0
 10 23  1  0
 23 24  2  0
 23 25  1  0
 25 26  1  0
 26 27  1  0
 27 28  1  0
 28 29  1  0
 29 30  1  0
 30 31  1  0
 31 32  1  0
 32 33  1  0
 33 34  1  0
 34 35  1  0
 35 36  1  0
 36 37  1  0
 37 38  1  0
 38 39  1  0
  1 40  1  0
  2 41  1  0
  2 42  1  0
  3 43  1  0
  5 44  1  0
  7 45  1  0
  8 46  1  0
  9 47  1  0
 11 48  1  0
 12 49  1  0
 15 50  1  0
 16 51  1  0
 18 52  1  0
 20 53  1  0
 20 54  1  0
 20 55  1  0
 21 56  1  0
 25 57  1  0
 25 58  1  0
 26 59  1  0
 26 60  1  0
 27 61  1  0
 27 62  1  0
 28 63  1  0
 28 64  1  0
 29 65  1  0
 29 66  1  0
 30 67  1  0
 30 68  1  0
 31 69  1  0
 31 70  1  0
 32 71  1  0
 32 72  1  0
 33 73  1  0
 33 74  1  0
 34 75  1  0
 34 76  1  0
 35 77  1  0
 35 78  1  0
 36 79  1  0
 36 80  1  0
 37 81  1  0
 37 82  1  0
 38 83  1  0
 38 84  1  0
 39 85  1  0
 39 86  1  0
 39 87  1  0
M  END
> <Name>
TBS2010 - Produto - (12b)

$$$$
TBS2010 - Produto - (13b)
  SciTegic12132405553D

 87 88  0  0  0  0            999 V2000
    0.5042   14.5001   -0.8495 O   0  0
    1.7420   14.4567   -0.1006 C   0  0
    1.7369   13.2518    0.8677 C   0  0  1  0  0  0
    2.9052   13.2149    1.7187 O   0  0
    2.9659   12.0435    2.5772 C   0  0  1  0  0  0
    4.1183   12.1030    3.4541 O   0  0
    1.6956   11.9404    3.4770 C   0  0  2  0  0  0
    1.7003   10.6560    4.1278 O   0  0
    0.3832   12.1132    2.6542 C   0  0  1  0  0  0
   -0.7495   12.2244    3.5147 O   0  0
    0.4650   13.3655    1.7499 C   0  0  2  0  0  0
   -0.7190   13.4778    0.9350 O   0  0
    5.3221   12.1241    2.8004 C   0  0
    5.9987   10.9222    2.4953 C   0  0
    5.8979   13.3578    2.4373 C   0  0
    7.0758   13.3939    1.6719 C   0  0
    7.7052   12.1952    1.2602 C   0  0
    7.1766   10.9629    1.7191 C   0  0
    5.4876    9.7185    2.9085 O   0  0
    6.0116    9.2836    4.1783 C   0  0
    8.8199   12.2497    0.3913 C   0  0
    9.3896   11.2200   -0.0374 O   0  0
    0.8365   10.2367    5.0946 C   0  0
    0.2592    9.1410    4.9082 O   0  0
    0.6653   10.9688    6.3702 C   0  0
    1.1538   10.1058    7.5569 C   0  0
    1.1801   10.8430    8.9211 C   0  0
    1.6763    9.8752   10.0271 C   0  0
    1.7048   10.4885   11.4464 C   0  0
    2.1795    9.4443   12.4912 C   0  0
    2.2062   10.0221   13.9252 C   0  0
    2.6777    8.9795   14.9686 C   0  0
    2.7005    9.5724   16.3985 C   0  0
    3.1720    8.5413   17.4537 C   0  0
    3.1924    9.1449   18.8815 C   0  0
    3.6635    8.1212   19.9465 C   0  0
    3.6827    8.7286   21.3727 C   0  0
    4.1537    7.7058   22.4393 C   0  0
    4.1676    8.3250   23.8550 C   0  0
   -0.2375   14.5262   -0.2405 H   0  0
    2.5235   14.2853   -0.8408 H   0  0
    1.7502   15.3662    0.5001 H   0  0
    1.8087   12.3177    0.3105 H   0  0
    3.0987   11.2046    1.8941 H   0  0
    1.7234   12.6870    4.2706 H   0  0
    0.1862   11.2161    2.0673 H   0  0
   -0.4604   12.1960    4.4296 H   0  0
    0.4605   14.2867    2.3325 H   0  0
   -1.4911   13.5510    1.5008 H   0  0
    5.4290   14.2906    2.7507 H   0  0
    7.5038   14.3576    1.3958 H   0  0
    7.6843   10.0309    1.4709 H   0  0
    6.0254    8.1942    4.2118 H   0  0
    7.0256    9.6639    4.3024 H   0  0
    5.3802    9.6639    4.9813 H   0  0
    9.2801   13.1652    0.0195 H   0  0
    1.3236   11.8352    6.3059 H   0  0
   -0.4090   11.1084    6.4906 H   0  0
    0.4164    9.3103    7.6647 H   0  0
    2.1920    9.8599    7.3335 H   0  0
    1.9265   11.6328    8.8369 H   0  0
    0.1470   11.0929    9.1629 H   0  0
    0.9415    9.0712   10.0688 H   0  0
    2.7147    9.6525    9.7819 H   0  0
    2.4604   11.2739   11.4274 H   0  0
    0.6724   10.7315   11.6977 H   0  0
    1.4278    8.6550   12.4968 H   0  0
    3.2140    9.2100   12.2400 H   0  0
    2.9592   10.8101   13.9207 H   0  0
    1.1721   10.2578   14.1765 H   0  0
    1.9246    8.1916   14.9761 H   0  0
    3.7119    8.7426   14.7190 H   0  0
    3.4522   10.3617   16.3879 H   0  0
    1.6656    9.8087   16.6458 H   0  0
    2.4201    7.7522   17.4663 H   0  0
    4.2069    8.3041   17.2073 H   0  0
    3.9435    9.9347   18.8663 H   0  0
    2.1569    9.3822   19.1255 H   0  0
    2.9125    7.3314   19.9624 H   0  0
    4.6991    7.8837   19.7032 H   0  0
    4.4336    9.5185   21.3564 H   0  0
    2.6470    8.9661   21.6157 H   0  0
    3.4035    6.9152   22.4596 H   0  0
    5.1901    7.4676   22.2004 H   0  0
    4.1749    7.5291   24.5997 H   0  0
    5.0588    8.9414   23.9732 H   0  0
    3.2789    8.9414   23.9907 H   0  0
  1  2  1  0
  3  2  1  0
  3  4  1  0
  4  5  1  0
  5  6  1  0
  5  7  1  0
  7  8  1  0
  7  9  1  0
  9 10  1  0
  9 11  1  0
  3 11  1  0
 11 12  1  0
  6 13  1  0
 15 16  1  0
 16 17  2  0
 17 18  1  0
 14 18  2  0
 14 13  1  0
 13 15  2  0
 14 19  1  0
 19 20  1  0
 17 21  1  0
 21 22  2  0
 23 24  2  0
 23 25  1  0
 25 26  1  0
 26 27  1  0
 27 28  1  0
 28 29  1  0
 29 30  1  0
 30 31  1  0
 31 32  1  0
 32 33  1  0
 33 34  1  0
 34 35  1  0
 35 36  1  0
 36 37  1  0
 37 38  1  0
 38 39  1  0
 23  8  1  0
  1 40  1  0
  2 41  1  0
  2 42  1  0
  3 43  1  0
  5 44  1  0
  7 45  1  0
  9 46  1  0
 10 47  1  0
 11 48  1  0
 12 49  1  0
 15 50  1  0
 16 51  1  0
 18 52  1  0
 20 53  1  0
 20 54  1  0
 20 55  1  0
 21 56  1  0
 25 57  1  0
 25 58  1  0
 26 59  1  0
 26 60  1  0
 27 61  1  0
 27 62  1  0
 28 63  1  0
 28 64  1  0
 29 65  1  0
 29 66  1  0
 30 67  1  0
 30 68  1  0
 31 69  1  0
 31 70  1  0
 32 71  1  0
 32 72  1  0
 33 73  1  0
 33 74  1  0
 34 75  1  0
 34 76  1  0
 35 77  1  0
 35 78  1  0
 36 79  1  0
 36 80  1  0
 37 81  1  0
 37 82  1  0
 38 83  1  0
 38 84  1  0
 39 85  1  0
 39 86  1  0
 39 87  1  0
M  END
> <Name>
TBS2010 - Produto - (13b)

$$$$
TBS2010 - Produto - (14b)
  SciTegic12132405553D

134135  0  0  0  0            999 V2000
   10.6717   10.6412  -11.9755 O   0  0
    9.3659   10.8535  -11.4450 C   0  0
    9.0940    9.8196  -10.3312 C   0  0  1  0  0  0
   10.0758   10.0182   -9.2962 O   0  0
   10.0471    9.0172   -8.2536 C   0  0  1  0  0  0
   11.1418    9.2104   -7.3296 O   0  0
    8.6957    9.1149   -7.4952 C   0  0  2  0  0  0
    8.7613    8.1013   -6.4756 O   0  0
    7.5240    8.9400   -8.5188 C   0  0  1  0  0  0
    6.2396    9.0971   -7.8834 O   0  0
    7.6658    9.9157   -9.7257 C   0  0  2  0  0  0
    6.7092    9.6072  -10.7393 O   0  0
   12.3633    9.0741   -7.9365 C   0  0
   13.0039    7.8180   -8.0268 C   0  0
   12.9797   10.2101   -8.4925 C   0  0
   14.1916   10.0910   -9.1924 C   0  0
   14.8197    8.8322   -9.3440 C   0  0
   14.2213    7.7061   -8.7315 C   0  0
   12.4340    6.7011   -7.4766 O   0  0
   12.9336    6.4181   -6.1584 C   0  0
   16.0059    8.7275  -10.1104 C   0  0
   16.6016    7.6401  -10.2907 O   0  0
    7.8541    7.8452   -5.4964 C   0  0
    8.0842    8.2521   -4.3359 O   0  0
    6.6812    7.0033   -5.7849 C   0  0
    6.6664    5.6151   -5.0998 C   0  0
    5.5159    4.7504   -5.6843 C   0  0
    5.4857    3.2991   -5.1523 C   0  0
    4.2970    2.5091   -5.7664 C   0  0
    4.2204    1.0488   -5.2578 C   0  0
    2.9937    0.2702   -5.8094 C   0  0
    2.9562   -1.1716   -5.2347 C   0  0
    1.7544   -2.0229   -5.7167 C   0  0
    1.7806   -3.4478   -5.0974 C   0  0
    0.5882   -4.3186   -5.5663 C   0  0
    0.6093   -5.7432   -4.9539 C   0  0
   -0.5923   -6.5938   -5.4398 C   0  0
   -0.5895   -8.0226   -4.8396 C   0  0
   -1.7898   -8.8617   -5.3297 C   0  0
    4.9906    8.8920   -8.4171 C   0  0
    4.2797    9.9136   -8.5478 O   0  0
    4.3840    7.5619   -8.6783 C   0  0
    5.1645    6.6873   -9.8304 C   0  0
    4.6281    5.2371  -10.1475 C   0  0
    5.4967    4.5066  -11.2152 C   0  0
    5.0670    3.0390  -11.4707 C   0  0
    5.8826    2.3750  -12.6157 C   0  0
    5.4080    0.9280  -12.9195 C   0  0
    6.1695    0.2532  -14.0954 C   0  0
    5.6427   -1.1832  -14.3796 C   0  0
    6.3727   -1.8937  -15.5530 C   0  0
    5.8338   -3.3269  -15.8206 C   0  0
    6.5698   -4.0311  -16.9921 C   0  0
    6.0360   -5.4630  -17.2612 C   0  0
    6.7732   -6.1666  -18.4324 C   0  0
    6.2377   -7.5928  -18.6961 C   0  0
   11.2974   10.5395  -11.2545 H   0  0
    9.3952   11.8436  -10.9899 H   0  0
    8.6818   10.6528  -12.2695 H   0  0
    9.2261    8.8138  -10.7299 H   0  0
   10.2173    8.0523   -8.7313 H   0  0
    8.5194   10.0402   -6.9468 H   0  0
    7.5011    7.9101   -8.8748 H   0  0
    7.4225   10.9338   -9.4217 H   0  0
    6.6290    8.6543  -10.8243 H   0  0
   12.5150   11.1897   -8.3802 H   0  0
   14.6484   10.9828   -9.6214 H   0  0
   14.7077    6.7334   -8.8039 H   0  0
   12.9881    5.3390   -6.0144 H   0  0
   13.9279    6.8504   -6.0461 H   0  0
   12.2634    6.8504   -5.4153 H   0  0
   16.5058    9.5594  -10.6065 H   0  0
    5.8397    7.5597   -5.3721 H   0  0
    6.7380    6.8172   -6.8574 H   0  0
    7.5996    5.1224   -5.3728 H   0  0
    6.4278    5.7875   -4.0503 H   0  0
    4.5909    5.2110   -5.3376 H   0  0
    5.7172    4.6689   -6.7525 H   0  0
    6.3962    2.8204   -5.5126 H   0  0
    5.2931    3.3679   -4.0817 H   0  0
    3.3911    2.9994   -5.4097 H   0  0
    4.4966    2.4446   -6.8360 H   0  0
    5.1008    0.5466   -5.6587 H   0  0
    4.0746    1.1155   -4.1796 H   0  0
    2.1073    0.7781   -5.4294 H   0  0
    3.1465    0.1713   -6.8840 H   0  0
    3.8444   -1.6686   -5.6248 H   0  0
    2.8237   -1.0577   -4.1588 H   0  0
    0.8596   -1.5356   -5.3294 H   0  0
    1.8827   -2.1522   -6.7914 H   0  0
    2.6778   -3.9310   -5.4842 H   0  0
    1.6532   -3.3148   -4.0231 H   0  0
   -0.3087   -3.8360   -5.1780 H   0  0
    0.7147   -4.4496   -6.6409 H   0  0
    1.5047   -6.2295   -5.3411 H   0  0
    0.4795   -5.6163   -3.8792 H   0  0
   -1.4860   -6.1045   -5.0524 H   0  0
   -0.4610   -6.7170   -6.5149 H   0  0
    0.3026   -8.5148   -5.2267 H   0  0
   -0.7226   -7.9024   -3.7644 H   0  0
   -2.3395   -9.2460   -4.4704 H   0  0
   -2.4485   -8.2363   -5.9322 H   0  0
   -1.4286   -9.6951   -5.9322 H   0  0
    4.4938    7.0347   -7.7306 H   0  0
    3.3902    7.7988   -9.0582 H   0  0
    5.0223    7.2324  -10.7636 H   0  0
    6.1701    6.5196   -9.4449 H   0  0
    4.7362    4.6610   -9.2285 H   0  0
    3.6439    5.3645  -10.5983 H   0  0
    5.3239    5.0335  -12.1536 H   0  0
    6.5021    4.4525  -10.7977 H   0  0
    5.3140    2.4891  -10.5626 H   0  0
    4.0346    3.0822  -11.8178 H   0  0
    5.6740    2.9567  -13.5136 H   0  0
    6.9051    2.2873  -12.2485 H   0  0
    5.6505    0.3431  -12.0323 H   0  0
    4.3722    1.0173  -13.2471 H   0  0
    5.9430    0.8429  -14.9837 H   0  0
    7.2020    0.1400  -13.7650 H   0  0
    5.8725   -1.7675  -13.4886 H   0  0
    4.6081   -1.0638  -14.7012 H   0  0
    6.1424   -1.3134  -16.4465 H   0  0
    7.4078   -2.0156  -15.2341 H   0  0
    6.0624   -3.9082  -14.9273 H   0  0
    4.7995   -3.2064  -16.1426 H   0  0
    6.3401   -3.4506  -17.8856 H   0  0
    7.6045   -4.1503  -16.6707 H   0  0
    6.2651   -6.0435  -16.3676 H   0  0
    5.0015   -5.3439  -17.5834 H   0  0
    6.5441   -5.5882  -19.3274 H   0  0
    7.8079   -6.2875  -18.1117 H   0  0
    6.0503   -8.0920  -17.7454 H   0  0
    5.3095   -7.5331  -19.2643 H   0  0
    6.9759   -8.1587  -19.2643 H   0  0
  1  2  1  0
  3  2  1  0
  3  4  1  0
  4  5  1  0
  5  6  1  0
  5  7  1  0
  7  8  1  0
  7  9  1  0
  9 10  1  0
  9 11  1  0
  3 11  1  0
 11 12  1  0
  6 13  1  0
 15 16  1  0
 16 17  2  0
 17 18  1  0
 14 18  2  0
 14 13  1  0
 13 15  2  0
 14 19  1  0
 19 20  1  0
 17 21  1  0
 21 22  2  0
 23 24  2  0
 23 25  1  0
 25 26  1  0
 26 27  1  0
 27 28  1  0
 28 29  1  0
 29 30  1  0
 30 31  1  0
 31 32  1  0
 32 33  1  0
 33 34  1  0
 34 35  1  0
 35 36  1  0
 36 37  1  0
 37 38  1  0
 38 39  1  0
 23  8  1  0
 40 41  2  0
 40 42  1  0
 42 43  1  0
 43 44  1  0
 44 45  1  0
 45 46  1  0
 46 47  1  0
 47 48  1  0
 48 49  1  0
 49 50  1  0
 50 51  1  0
 51 52  1  0
 52 53  1  0
 53 54  1  0
 54 55  1  0
 55 56  1  0
 10 40  1  0
  1 57  1  0
  2 58  1  0
  2 59  1  0
  3 60  1  0
  5 61  1  0
  7 62  1  0
  9 63  1  0
 11 64  1  0
 12 65  1  0
 15 66  1  0
 16 67  1  0
 18 68  1  0
 20 69  1  0
 20 70  1  0
 20 71  1  0
 21 72  1  0
 25 73  1  0
 25 74  1  0
 26 75  1  0
 26 76  1  0
 27 77  1  0
 27 78  1  0
 28 79  1  0
 28 80  1  0
 29 81  1  0
 29 82  1  0
 30 83  1  0
 30 84  1  0
 31 85  1  0
 31 86  1  0
 32 87  1  0
 32 88  1  0
 33 89  1  0
 33 90  1  0
 34 91  1  0
 34 92  1  0
 35 93  1  0
 35 94  1  0
 36 95  1  0
 36 96  1  0
 37 97  1  0
 37 98  1  0
 38 99  1  0
 38100  1  0
 39101  1  0
 39102  1  0
 39103  1  0
 42104  1  0
 42105  1  0
 43106  1  0
 43107  1  0
 44108  1  0
 44109  1  0
 45110  1  0
 45111  1  0
 46112  1  0
 46113  1  0
 47114  1  0
 47115  1  0
 48116  1  0
 48117  1  0
 49118  1  0
 49119  1  0
 50120  1  0
 50121  1  0
 51122  1  0
 51123  1  0
 52124  1  0
 52125  1  0
 53126  1  0
 53127  1  0
 54128  1  0
 54129  1  0
 55130  1  0
 55131  1  0
 56132  1  0
 56133  1  0
 56134  1  0
M  END
> <Name>
TBS2010 - Produto - (14b)

$$$$
TBS2010 - Produto - (15b)
  SciTegic12132405553D

 83 84  0  0  0  0            999 V2000
   14.9298    0.2848    3.3239 O   0  0
   13.5920    0.5254    3.7453 C   0  0
   13.1924   -0.4406    4.8910 C   0  0  1  0  0  0
   14.1189   -0.2266    5.9745 O   0  0
   13.9478   -1.1043    7.1144 C   0  0  1  0  0  0
   14.9542   -0.8245    8.1143 O   0  0
   12.5414   -0.8760    7.7368 C   0  0  2  0  0  0
   12.3230   -1.7721    8.8257 O   0  0
   11.4241   -1.0450    6.6645 C   0  0  1  0  0  0
   10.1010   -0.7936    7.1837 O   0  0
   11.7389   -0.2007    5.3933 C   0  0  2  0  0  0
   10.7899   -0.4943    4.3671 O   0  0
   16.2338   -0.9469    7.6371 C   0  0
   16.8808    0.1723    7.0711 C   0  0
   16.9081   -2.1816    7.6997 C   0  0
   18.2071   -2.2991    7.1761 C   0  0
   18.8375   -1.1842    6.5910 C   0  0
   18.1832    0.0694    6.5256 C   0  0
   18.8301    1.1773    5.9214 C   0  0
   18.3085    2.3141    5.8597 O   0  0
    9.6544    0.2967    7.8770 C   0  0
    9.5034    0.1762    9.1139 O   0  0
    9.2368    1.5430    7.2031 C   0  0
    7.7030    1.7871    7.2287 C   0  0
    7.2642    2.8374    6.1689 C   0  0
    5.7255    3.0053    6.0792 C   0  0
    5.2924    4.0648    5.0290 C   0  0
    3.7535    4.2546    4.9976 C   0  0
    3.2902    5.3632    4.0152 C   0  0
    1.7513    5.5569    4.0511 C   0  0
    1.2537    6.6714    3.0948 C   0  0
   -0.2875    6.8458    3.1535 C   0  0
   -0.8044    7.9540    2.2006 C   0  0
   -2.3461    8.1259    2.2560 C   0  0
   -2.8491    9.2363    1.2958 C   0  0
   -4.3893    9.4209    1.3378 C   0  0
   -4.8790   10.5291    0.3775 C   0  0
   15.4944    0.1832    4.0936 H   0  0
   13.6021    1.5385    4.1473 H   0  0
   12.9772    0.2899    2.8766 H   0  0
   13.2856   -1.4779    4.5694 H   0  0
   14.1159   -2.1214    6.7604 H   0  0
   12.4875    0.1099    8.1985 H   0  0
   12.3858   -2.6774    8.5127 H   0  0
   11.3335   -2.0979    6.3978 H   0  0
   11.5926    0.8611    5.5916 H   0  0
   10.7037   -1.4459    4.2738 H   0  0
   16.3656    1.1328    7.0549 H   0  0
   16.4245   -3.0466    8.1536 H   0  0
   18.7264   -3.2563    7.2238 H   0  0
   19.8429   -1.2928    6.1842 H   0  0
   19.8185    1.1528    5.4624 H   0  0
    9.6926    2.3428    7.7867 H   0  0
    9.5159    1.4033    6.1588 H   0  0
    7.2397    0.8451    6.9353 H   0  0
    7.4803    2.2240    8.2022 H   0  0
    7.6501    3.7957    6.5165 H   0  0
    7.5787    2.4410    5.2035 H   0  0
    5.3395    2.0507    5.7218 H   0  0
    5.4087    3.3932    7.0474 H   0  0
    5.7096    5.0146    5.3633 H   0  0
    5.5691    3.6605    4.0552 H   0  0
    3.3447    3.3213    4.6106 H   0  0
    3.4744    4.6006    5.9929 H   0  0
    3.7241    6.2947    4.3787 H   0  0
    3.5299    5.0044    3.0143 H   0  0
    1.3229    4.6272    3.6767 H   0  0
    1.5151    5.8989    5.0587 H   0  0
    1.6802    7.6033    3.4660 H   0  0
    1.4837    6.3308    2.0853 H   0  0
   -0.7113    5.9111    2.7860 H   0  0
   -0.5145    7.1872    4.1634 H   0  0
   -0.3829    8.8889    2.5698 H   0  0
   -0.5747    7.6138    1.1908 H   0  0
   -2.7694    7.1914    1.8876 H   0  0
   -2.5775    8.4689    3.2644 H   0  0
   -2.4239   10.1693    1.6657 H   0  0
   -2.6146    8.8921    0.2885 H   0  0
   -4.8174    8.4897    0.9668 H   0  0
   -4.6267    9.7672    2.3437 H   0  0
   -5.2521   11.3734    0.9572 H   0  0
   -4.0510   10.8573   -0.2508 H   0  0
   -5.6791   10.1379   -0.2508 H   0  0
  1  2  1  0
  3  2  1  0
  3  4  1  0
  5  4  1  0
  5  6  1  0
  7  5  1  0
  7  8  1  0
  7  9  1  0
  9 10  1  0
  9 11  1  0
 11  3  1  0
 11 12  1  0
  6 13  1  0
 15 16  1  0
 16 17  2  0
 17 18  1  0
 14 18  2  0
 14 13  1  0
 13 15  2  0
 18 19  1  0
 19 20  2  0
 10 21  1  0
 21 23  1  0
 23 24  1  0
 24 25  1  0
 25 26  1  0
 26 27  1  0
 27 28  1  0
 28 29  1  0
 29 30  1  0
 30 31  1  0
 31 32  1  0
 32 33  1  0
 33 34  1  0
 34 35  1  0
 35 36  1  0
 36 37  1  0
 21 22  2  0
  1 38  1  0
  2 39  1  0
  2 40  1  0
  3 41  1  0
  5 42  1  0
  7 43  1  0
  8 44  1  0
  9 45  1  0
 11 46  1  0
 12 47  1  0
 14 48  1  0
 15 49  1  0
 16 50  1  0
 17 51  1  0
 19 52  1  0
 23 53  1  0
 23 54  1  0
 24 55  1  0
 24 56  1  0
 25 57  1  0
 25 58  1  0
 26 59  1  0
 26 60  1  0
 27 61  1  0
 27 62  1  0
 28 63  1  0
 28 64  1  0
 29 65  1  0
 29 66  1  0
 30 67  1  0
 30 68  1  0
 31 69  1  0
 31 70  1  0
 32 71  1  0
 32 72  1  0
 33 73  1  0
 33 74  1  0
 34 75  1  0
 34 76  1  0
 35 77  1  0
 35 78  1  0
 36 79  1  0
 36 80  1  0
 37 81  1  0
 37 82  1  0
 37 83  1  0
M  END
> <Name>
TBS2010 - Produto - (15b)

$$$$
TBS2010 - Produto - (16b)
  SciTegic12132405553D

 83 84  0  0  0  0            999 V2000
   14.9457    6.7885    0.7290 O   0  0
   13.6472    7.3166    0.9820 C   0  0
   12.8682    6.3828    1.9332 C   0  0  1  0  0  0
   13.6532    6.2375    3.1365 O   0  0
   13.1255    5.2984    4.1029 C   0  0  1  0  0  0
   13.9634    5.2650    5.2793 O   0  0
   11.7024    5.7271    4.5556 C   0  0  2  0  0  0
   11.1377    4.8096    5.5203 O   0  0
   10.7888    5.9726    3.3201 C   0  0  1  0  0  0
    9.5383    6.5051    3.7483 O   0  0
   11.4576    6.9307    2.2963 C   0  0  2  0  0  0
   10.6381    7.0523    1.1342 O   0  0
   15.2187    4.7887    5.0265 C   0  0
   16.2527    5.6778    4.6738 C   0  0
   15.4839    3.4099    5.1210 C   0  0
   16.7648    2.9170    4.8212 C   0  0
   17.7858    3.8030    4.4310 C   0  0
   17.5441    5.1959    4.3503 C   0  0
   18.5794    6.0705    3.9410 C   0  0
   18.4281    7.3116    3.8700 O   0  0
   11.0610    3.4415    5.4623 C   0  0
   11.8521    2.7773    6.1701 O   0  0
   10.0037    2.7493    4.6963 C   0  0
    8.9741    1.9949    5.5846 C   0  0
    7.6573    1.6852    4.8162 C   0  0
    6.5558    1.0697    5.7173 C   0  0
    5.2649    0.7331    4.9233 C   0  0
    4.1956    0.0584    5.8187 C   0  0
    2.9208   -0.3562    5.0395 C   0  0
    1.9008   -1.0623    5.9699 C   0  0
    0.6140   -1.5064    5.2332 C   0  0
   -0.3818   -2.2075    6.1913 C   0  0
   -1.6670   -2.6463    5.4515 C   0  0
   -2.6713   -3.3457    6.3982 C   0  0
   -3.9538   -3.7785    5.6458 C   0  0
   -4.9726   -4.4806    6.5778 C   0  0
   -6.2516   -4.9123    5.8282 C   0  0
   15.3863    6.6094    1.5629 H   0  0
   13.8185    8.2597    1.5009 H   0  0
   13.1430    7.3100    0.0156 H   0  0
   12.7552    5.3980    1.4798 H   0  0
   13.1674    4.3229    3.6184 H   0  0
   11.7481    6.6372    5.1537 H   0  0
   10.5373    5.0293    2.8352 H   0  0
    9.5078    6.5181    4.7078 H   0  0
   11.5150    7.9541    2.6671 H   0  0
   10.4099    6.1778    0.8105 H   0  0
   16.0517    6.7489    4.6512 H   0  0
   14.6955    2.7223    5.4271 H   0  0
   16.9664    1.8481    4.8913 H   0  0
   18.7722    3.4071    4.1893 H   0  0
   19.5843    5.7601    3.6546 H   0  0
    9.4588    3.5460    4.1899 H   0  0
   10.5304    1.9935    4.1137 H   0  0
    9.4238    1.0303    5.8199 H   0  0
    8.7043    2.6809    6.3876 H   0  0
    7.2687    2.6479    4.4842 H   0  0
    7.9089    0.9174    4.0846 H   0  0
    6.9513    0.1180    6.0722 H   0  0
    6.2798    1.8455    6.4315 H   0  0
    4.8413    1.6871    4.6093 H   0  0
    5.5494   -0.0088    4.1771 H   0  0
    4.6445   -0.8687    6.1752 H   0  0
    3.8778    0.8194    6.5315 H   0  0
    2.4476    0.5684    4.7089 H   0  0
    3.2357   -1.0995    4.3071 H   0  0
    2.3849   -1.9789    6.3070 H   0  0
    1.5869   -0.3128    6.6965 H   0  0
    0.1238   -0.5928    4.8969 H   0  0
    0.9219   -2.2588    4.5071 H   0  0
    0.1064   -3.1229    6.5259 H   0  0
   -0.6889   -1.4564    6.9189 H   0  0
   -2.1525   -1.7303    5.1150 H   0  0
   -1.3586   -3.3982    4.7251 H   0  0
   -2.1880   -4.2631    6.7341 H   0  0
   -2.9806   -2.5949    7.1255 H   0  0
   -4.4332   -2.8592    5.3094 H   0  0
   -3.6408   -4.5276    4.9186 H   0  0
   -4.4942   -5.4004    6.9143 H   0  0
   -5.2865   -3.7319    7.3052 H   0  0
   -7.0252   -5.1735    6.5502 H   0  0
   -6.6008   -4.0909    5.2026 H   0  0
   -6.0315   -5.7774    5.2026 H   0  0
  1  2  1  0
  3  2  1  0
  3  4  1  0
  5  4  1  0
  5  6  1  0
  7  5  1  0
  7  8  1  0
  7  9  1  0
  9 10  1  0
  9 11  1  0
 11  3  1  0
 11 12  1  0
  6 13  1  0
 15 16  1  0
 16 17  2  0
 17 18  1  0
 14 18  2  0
 14 13  1  0
 13 15  2  0
 18 19  1  0
 19 20  2  0
 21 23  1  0
 23 24  1  0
 24 25  1  0
 25 26  1  0
 26 27  1  0
 27 28  1  0
 28 29  1  0
 29 30  1  0
 30 31  1  0
 31 32  1  0
 32 33  1  0
 33 34  1  0
 34 35  1  0
 35 36  1  0
 36 37  1  0
 21 22  2  0
 21  8  1  0
  1 38  1  0
  2 39  1  0
  2 40  1  0
  3 41  1  0
  5 42  1  0
  7 43  1  0
  9 44  1  0
 10 45  1  0
 11 46  1  0
 12 47  1  0
 14 48  1  0
 15 49  1  0
 16 50  1  0
 17 51  1  0
 19 52  1  0
 23 53  1  0
 23 54  1  0
 24 55  1  0
 24 56  1  0
 25 57  1  0
 25 58  1  0
 26 59  1  0
 26 60  1  0
 27 61  1  0
 27 62  1  0
 28 63  1  0
 28 64  1  0
 29 65  1  0
 29 66  1  0
 30 67  1  0
 30 68  1  0
 31 69  1  0
 31 70  1  0
 32 71  1  0
 32 72  1  0
 33 73  1  0
 33 74  1  0
 34 75  1  0
 34 76  1  0
 35 77  1  0
 35 78  1  0
 36 79  1  0
 36 80  1  0
 37 81  1  0
 37 82  1  0
 37 83  1  0
M  END
> <Name>
TBS2010 - Produto - (16b)

$$$$
TBS2010 - Produto - (17b)
  SciTegic12132405553D

127128  0  0  0  0            999 V2000
   12.3250    6.8454   -0.7233 O   0  0
   11.3982    7.1931    0.2994 C   0  0
   11.2610    6.0273    1.3090 C   0  0  1  0  0  0
   12.5609    5.8112    1.8872 O   0  0
   12.6311    4.6915    2.7984 C   0  0  1  0  0  0
   13.9915    4.5001    3.2480 O   0  0
   11.7277    4.9642    4.0267 C   0  0  2  0  0  0
   11.8299    3.7903    4.8485 O   0  0
   10.2636    5.2512    3.5604 C   0  0  1  0  0  0
    9.4757    5.7093    4.6740 O   0  0
   10.2229    6.3232    2.4287 C   0  0  2  0  0  0
    8.9179    6.3731    1.8554 O   0  0
   14.8350    4.2336    2.2045 C   0  0
   15.4844    5.2970    1.5447 C   0  0
   15.0386    2.9106    1.7667 C   0  0
   15.8534    2.6614    0.6500 C   0  0
   16.4732    3.7301   -0.0250 C   0  0
   16.2958    5.0659    0.4092 C   0  0
   16.9041    6.1335   -0.2987 C   0  0
   16.7670    7.3321    0.0413 O   0  0
   11.4608    3.6805    6.1507 C   0  0
   12.2772    3.9653    7.0556 O   0  0
   10.1240    3.1585    6.4629 C   0  0
   10.0941    1.6686    6.8897 C   0  0
    8.6446    1.1280    6.7679 C   0  0
    8.4703   -0.3608    7.1547 C   0  0
    6.9708   -0.7597    7.0781 C   0  0
    6.6944   -2.2452    7.4112 C   0  0
    5.1693   -2.5432    7.4397 C   0  0
    4.8788   -4.0241    7.7842 C   0  0
    3.3682   -4.3783    7.7847 C   0  0
    3.1391   -5.8521    8.2134 C   0  0
    1.6479   -6.2787    8.2017 C   0  0
    1.4612   -7.7526    8.6560 C   0  0
   -0.0223   -8.2085    8.6366 C   0  0
   -0.1941   -9.6845    9.0865 C   0  0
   -1.6660  -10.1527    9.0661 C   0  0
    8.1214    5.8981    4.7042 C   0  0
    7.1407    4.8270    4.4108 C   0  0
    6.2862    4.5043    5.6651 C   0  0
    5.3055    3.3128    5.4951 C   0  0
    4.6393    2.9385    6.8475 C   0  0
    3.5775    1.8081    6.7603 C   0  0
    3.0428    1.4101    8.1652 C   0  0
    1.9591    0.2991    8.1353 C   0  0
    1.4245   -0.0639    9.5499 C   0  0
    0.4319   -1.2586    9.5240 C   0  0
   -0.2332   -1.5449   10.8984 C   0  0
   -1.2032   -2.7591   10.8504 C   0  0
   -1.9367   -3.0000   12.1989 C   0  0
   -2.9266   -4.1966   12.1479 C   0  0
   -3.6674   -4.4245   13.4869 C   0  0
    7.7129    7.0199    5.0825 O   0  0
   12.3848    5.8895   -0.7894 H   0  0
   11.8498    8.0388    0.8179 H   0  0
   10.4426    7.3137   -0.2107 H   0  0
   10.9666    5.1087    0.8013 H   0  0
   12.3455    3.8049    2.2325 H   0  0
   12.0561    5.7947    4.6517 H   0  0
    9.7911    4.3271    3.2272 H   0  0
   10.3930    7.3138    2.8505 H   0  0
    8.2616    6.3982    2.5556 H   0  0
   15.3573    6.3131    1.9180 H   0  0
   14.5661    2.0804    2.2916 H   0  0
   16.0048    1.6379    0.3071 H   0  0
   17.0975    3.5210   -0.8936 H   0  0
   17.5326    6.0229   -1.1824 H   0  0
    9.7977    3.7381    7.3265 H   0  0
    9.5765    3.2260    5.5228 H   0  0
   10.6969    1.1214    6.1649 H   0  0
   10.3541    1.6390    7.9478 H   0  0
    8.0589    1.6897    7.4957 H   0  0
    8.3971    1.1857    5.7080 H   0  0
    8.9889   -0.9430    6.3930 H   0  0
    8.7645   -0.4471    8.2007 H   0  0
    6.4695   -0.1846    7.8565 H   0  0
    6.6817   -0.6325    6.0348 H   0  0
    7.1073   -2.8258    6.5862 H   0  0
    7.0593   -2.4044    8.4259 H   0  0
    4.7568   -1.9539    8.2586 H   0  0
    4.8079   -2.3910    6.4227 H   0  0
    5.3229   -4.6094    6.9790 H   0  0
    5.2189   -4.1629    8.8104 H   0  0
    2.9067   -3.7584    8.5535 H   0  0
    3.0337   -4.3026    6.7501 H   0  0
    3.6298   -6.4629    7.4556 H   0  0
    3.4585   -5.9134    9.2537 H   0  0
    1.1494   -5.6629    8.9503 H   0  0
    1.3277   -6.2371    7.1606 H   0  0
    1.9734   -8.3641    7.9131 H   0  0
    1.7731   -7.7881    9.6998 H   0  0
   -0.5353   -7.6022    9.3832 H   0  0
   -0.3373   -8.1707    7.5938 H   0  0
    0.3230  -10.2901    8.3422 H   0  0
    0.1171   -9.7210   10.1305 H   0  0
   -2.0251  -10.2669   10.0889 H   0  0
   -2.2755   -9.4127    8.5475 H   0  0
   -1.7359  -11.1089    8.5475 H   0  0
    6.4691    5.2407    3.6585 H   0  0
    7.7324    3.9400    4.1844 H   0  0
    6.9960    4.1937    6.4318 H   0  0
    5.6588    5.3809    5.8263 H   0  0
    4.5050    3.6633    4.8436 H   0  0
    5.9108    2.4551    5.2017 H   0  0
    5.4412    2.5407    7.4695 H   0  0
    4.0953    3.8287    7.1631 H   0  0
    2.7299    2.2265    6.2175 H   0  0
    4.0954    0.9319    6.3704 H   0  0
    3.8925    0.9813    8.6965 H   0  0
    2.5466    2.2979    8.5573 H   0  0
    1.1130    0.7193    7.5916 H   0  0
    2.4567   -0.5959    7.7619 H   0  0
    2.2883   -0.4011   10.1227 H   0  0
    0.8500    0.7989    9.8871 H   0  0
   -0.3771   -0.9600    8.8574 H   0  0
    1.0312   -2.1394    9.2932 H   0  0
    0.5752   -1.8296   11.5719 H   0  0
   -0.8489   -0.6741   11.1235 H   0  0
   -1.9775   -2.4980   10.1290 H   0  0
   -0.5790   -3.6374   10.6860 H   0  0
   -1.1642   -3.2794   12.9154 H   0  0
   -2.5459   -2.1130   12.3724 H   0  0
   -3.6942   -3.9234   11.4237 H   0  0
   -2.3177   -5.0863   11.9872 H   0  0
   -3.7681   -5.4944   13.6690 H   0  0
   -3.0992   -3.9697   14.2984 H   0  0
   -4.6567   -3.9697   13.4368 H   0  0
  1  2  1  0
  3  2  1  0
  3  4  1  0
  5  4  1  0
  5  6  1  0
  7  5  1  0
  7  8  1  0
  7  9  1  0
  9 10  1  0
  9 11  1  0
 11  3  1  0
 11 12  1  0
  6 13  1  0
 15 16  1  0
 16 17  2  0
 17 18  1  0
 14 18  2  0
 14 13  1  0
 13 15  2  0
 18 19  1  0
 19 20  2  0
 21 23  1  0
 23 24  1  0
 24 25  1  0
 25 26  1  0
 26 27  1  0
 27 28  1  0
 28 29  1  0
 29 30  1  0
 30 31  1  0
 31 32  1  0
 32 33  1  0
 33 34  1  0
 34 35  1  0
 35 36  1  0
 36 37  1  0
 21 22  2  0
 21  8  1  0
 38 39  1  0
 39 40  1  0
 40 41  1  0
 41 42  1  0
 42 43  1  0
 43 44  1  0
 44 45  1  0
 45 46  1  0
 46 47  1  0
 47 48  1  0
 48 49  1  0
 49 50  1  0
 50 51  1  0
 51 52  1  0
 38 53  2  0
 38 10  1  0
  1 54  1  0
  2 55  1  0
  2 56  1  0
  3 57  1  0
  5 58  1  0
  7 59  1  0
  9 60  1  0
 11 61  1  0
 12 62  1  0
 14 63  1  0
 15 64  1  0
 16 65  1  0
 17 66  1  0
 19 67  1  0
 23 68  1  0
 23 69  1  0
 24 70  1  0
 24 71  1  0
 25 72  1  0
 25 73  1  0
 26 74  1  0
 26 75  1  0
 27 76  1  0
 27 77  1  0
 28 78  1  0
 28 79  1  0
 29 80  1  0
 29 81  1  0
 30 82  1  0
 30 83  1  0
 31 84  1  0
 31 85  1  0
 32 86  1  0
 32 87  1  0
 33 88  1  0
 33 89  1  0
 34 90  1  0
 34 91  1  0
 35 92  1  0
 35 93  1  0
 36 94  1  0
 36 95  1  0
 37 96  1  0
 37 97  1  0
 37 98  1  0
 39 99  1  0
 39100  1  0
 40101  1  0
 40102  1  0
 41103  1  0
 41104  1  0
 42105  1  0
 42106  1  0
 43107  1  0
 43108  1  0
 44109  1  0
 44110  1  0
 45111  1  0
 45112  1  0
 46113  1  0
 46114  1  0
 47115  1  0
 47116  1  0
 48117  1  0
 48118  1  0
 49119  1  0
 49120  1  0
 50121  1  0
 50122  1  0
 51123  1  0
 51124  1  0
 52125  1  0
 52126  1  0
 52127  1  0
M  END
> <Name>
TBS2010 - Produto - (17b)

$$$$
TBS2010 - Produto - (18b)
  SciTegic12132405553D

 78 81  0  0  0  0            999 V2000
    3.3510    4.8549   -4.6619 O   0  0
    2.0577    5.1736   -4.1604 C   0  0
    1.7132    4.2598   -2.9608 C   0  0  1  0  0  0
    2.7130    4.4709   -1.9402 O   0  0
    2.5819    3.6135   -0.7833 C   0  0  1  0  0  0
    3.6197    3.9121    0.1738 O   0  0
    1.2144    3.8501   -0.0931 C   0  0  2  0  0  0
    1.0626    2.9380    0.9941 O   0  0
    0.0387    3.6950   -1.1031 C   0  0  1  0  0  0
   -1.2257    3.9835   -0.4733 O   0  0
    0.2964    4.5493   -2.3821 C   0  0  2  0  0  0
   -0.7185    4.2939   -3.3523 O   0  0
    4.8780    3.6053   -0.2688 C   0  0
    5.6796    4.5809   -0.9017 C   0  0
    5.3860    2.3086   -0.0655 C   0  0
    6.6775    1.9759   -0.5078 C   0  0
    7.4881    2.9344   -1.1601 C   0  0
    6.9666    4.2357   -1.3611 C   0  0
    5.2099    5.8515   -1.1043 O   0  0
    5.4537    6.7277    0.0103 C   0  0
    8.7940    2.5806   -1.5784 C   0  0
    9.5532    3.3805   -2.1719 O   0  0
   -1.8264   14.4497    3.0400 C   0  0
   -2.4145   13.8964    1.8730 C   0  0
   -3.0600   14.7924    0.9786 C   0  0
   -3.1723   16.1654    1.2676 C   0  0
   -2.6188   16.6820    2.4495 C   0  0
   -1.9345   15.8255    3.3317 C   0  0
   -2.4490   12.5212    1.6027 C   0  0
   -1.4430   16.3148    4.5105 O   0  0
   -0.0493   16.8079    4.4761 C   0  0
    0.4898   17.2115    5.8868 C   0  0
    0.5308   16.2674    6.9303 C   0  0
   -1.6557   11.5598    2.1266 C   0  0
   -1.8146   10.1956    1.8838 C   0  0
   -2.7605    9.7957    1.1598 O   0  0
   -0.9814    9.2886    2.4896 N   0  0
   -1.0252    7.9234    2.3618 C   0  0
   -1.3466    7.2676    1.1494 C   0  0
   -1.4040    5.8574    1.0582 C   0  0
   -1.1303    5.0927    2.2136 C   0  0
   -0.7884    5.7264    3.4215 C   0  0
   -0.7241    7.1318    3.4900 C   0  0
   -1.6889    5.2312   -0.1777 C   0  0
   -2.3773    5.8075   -1.0514 O   0  0
    3.9515    4.7070   -3.9276 H   0  0
    2.1382    6.1970   -3.7939 H   0  0
    1.3707    4.9383   -4.9732 H   0  0
    1.7668    3.2122   -3.2568 H   0  0
    2.7272    2.5945   -1.1420 H   0  0
    1.1840    4.8362    0.3704 H   0  0
    1.1085    2.0373    0.6649 H   0  0
   -0.0968    2.6530   -1.3928 H   0  0
    0.1865    5.6141   -2.1768 H   0  0
   -1.5428    4.0865   -2.9061 H   0  0
    4.7760    1.5579    0.4370 H   0  0
    7.0536    0.9661   -0.3435 H   0  0
    7.5662    4.9846   -1.8784 H   0  0
    5.6490    6.1340    0.9033 H   0  0
    6.3178    7.3566   -0.2041 H   0  0
    4.5790    7.3566    0.1762 H   0  0
    9.2565    1.6047   -1.4301 H   0  0
   -1.2797   13.8040    3.7273 H   0  0
   -3.4802   14.4164    0.0458 H   0  0
   -3.6888   16.8298    0.5749 H   0  0
   -2.7199   17.7424    2.6810 H   0  0
   -3.1888   12.1514    0.8928 H   0  0
    0.5424   15.9567    4.1392 H   0  0
   -0.0870   17.7171    3.8760 H   0  0
    0.8559   18.2021    6.1567 H   0  0
    1.4899   15.9020    7.2973 H   0  0
   -0.3965   15.9020    7.3714 H   0  0
   -0.8493   11.9010    2.7759 H   0  0
   -0.2623    9.6644    3.0910 H   0  0
   -1.5557    7.8648    0.2619 H   0  0
   -1.1834    4.0048    2.1728 H   0  0
   -0.5729    5.1272    4.3061 H   0  0
   -0.4383    7.6118    4.4259 H   0  0
  1  2  1  0
  3  2  1  0
  3  4  1  0
  4  5  1  0
  5  6  1  0
  5  7  1  0
  7  8  1  0
  7  9  1  0
  9 10  1  0
  9 11  1  0
  3 11  1  0
 11 12  1  0
  6 13  1  0
 15 16  1  0
 16 17  2  0
 17 18  1  0
 14 18  2  0
 14 13  1  0
 13 15  2  0
 14 19  1  0
 19 20  1  0
 17 21  1  0
 21 22  2  0
 23 24  2  0
 24 25  1  0
 25 26  2  0
 26 27  1  0
 27 28  2  0
 23 28  1  0
 24 29  1  0
 28 30  1  0
 30 31  1  0
 31 32  1  0
 32 33  2  0
 34 35  1  0
 35 37  1  0
 35 36  2  0
 29 34  2  0
 37 38  1  0
 39 40  2  0
 40 41  1  0
 41 42  2  0
 42 43  1  0
 43 38  2  0
 39 38  1  0
 40 44  1  0
 44 45  2  0
 10 44  1  0
  1 46  1  0
  2 47  1  0
  2 48  1  0
  3 49  1  0
  5 50  1  0
  7 51  1  0
  8 52  1  0
  9 53  1  0
 11 54  1  0
 12 55  1  0
 15 56  1  0
 16 57  1  0
 18 58  1  0
 20 59  1  0
 20 60  1  0
 20 61  1  0
 21 62  1  0
 23 63  1  0
 25 64  1  0
 26 65  1  0
 27 66  1  0
 29 67  1  0
 31 68  1  0
 31 69  1  0
 32 70  1  0
 33 71  1  0
 33 72  1  0
 34 73  1  0
 37 74  1  0
 39 75  1  0
 41 76  1  0
 42 77  1  0
 43 78  1  0
M  END
> <Name>
TBS2010 - Produto - (18b)

$$$$
TBS2010 - Produto - (19b)
  SciTegic12132405553D

116121  0  0  0  0            999 V2000
    1.5328   12.3837   -2.6806 O   0  0
    0.5557   11.9344   -1.7440 C   0  0
    0.5990   10.3901   -1.6313 C   0  0  1  0  0  0
    1.9408   10.0402   -1.2318 O   0  0
    2.2041    8.6227   -1.1424 C   0  0  1  0  0  0
    3.5794    8.4007   -0.7606 O   0  0
    1.2873    7.9814   -0.0682 C   0  0  2  0  0  0
    1.5368    6.5604   -0.0762 O   0  0
   -0.2061    8.2886   -0.3812 C   0  0  1  0  0  0
   -0.9999    7.8058    0.7212 O   0  0
   -0.4293    9.8162   -0.6090 C   0  0  2  0  0  0
   -1.7582   10.0661   -1.0656 O   0  0
    4.4800    8.8741   -1.6808 C   0  0
    4.9073    8.0671   -2.7608 C   0  0
    4.9833   10.1784   -1.5217 C   0  0
    5.8817   10.7150   -2.4571 C   0  0
    6.3055    9.9621   -3.5745 C   0  0
    5.8161    8.6419   -3.7139 C   0  0
    4.3730    6.7695   -2.8160 O   0  0
    5.2916    5.7923   -2.1098 C   0  0
    7.1973   10.5423   -4.5103 C   0  0
    7.5953    9.9405   -5.5340 O   0  0
  -10.5698    9.4640   -4.0950 C   0  0
   -9.6565   10.3379   -3.4518 C   0  0
  -10.0292   11.7037   -3.3358 C   0  0
  -11.2558   12.1749   -3.8373 C   0  0
  -12.1528   11.2837   -4.4482 C   0  0
  -11.8177    9.9220   -4.5666 C   0  0
   -8.4076    9.9338   -2.9601 C   0  0
  -12.6786    9.0493   -5.1731 O   0  0
  -13.4740    8.2866   -4.2421 C   0  0
  -14.1575    7.2404   -4.9721 C   0  0
  -13.5083    6.2171   -5.5418 C   0  0
   -7.9689    8.6732   -2.7533 C   0  0
   -6.6899    8.3630   -2.2980 C   0  0
   -5.8391    9.2767   -2.1555 O   0  0
   -6.3356    7.0623   -2.0541 N   0  0
   -5.1110    6.6409   -1.6144 C   0  0
   -4.3977    7.2941   -0.5796 C   0  0
   -3.0763    6.9156   -0.2422 C   0  0
   -2.4993    5.8188   -0.9235 C   0  0
   -3.2183    5.1270   -1.9146 C   0  0
   -4.5255    5.5247   -2.2454 C   0  0
   -2.3527    7.6176    0.7564 C   0  0
   -2.9427    8.0356    1.7788 O   0  0
   -2.6826    2.0503    9.1070 C   0  0
   -1.4457    2.5523    9.5929 C   0  0
   -1.1371    2.3158   10.9596 C   0  0
   -1.9972    1.5742   11.7859 C   0  0
   -3.2020    1.0669   11.2777 C   0  0
   -3.5457    1.2978    9.9329 C   0  0
   -0.4965    3.2262    8.8034 C   0  0
   -4.7275    0.8175    9.4398 O   0  0
   -4.6260   -0.4998    8.8593 C   0  0
   -5.9103   -0.8689    8.2969 C   0  0
   -6.4933   -0.1687    7.3159 C   0  0
   -0.5928    3.6090    7.5127 C   0  0
    0.4325    4.2154    6.7879 C   0  0
    1.5738    4.3342    7.2951 O   0  0
    0.1861    4.6233    5.5046 N   0  0
    1.0154    5.2556    4.6130 C   0  0
    0.6799    5.1484    3.2408 C   0  0
    1.1300    5.4117    2.0446 C   0  0
    2.6406    6.4513    2.6272 C   0  0
    2.9797    6.5796    3.9822 C   0  0
    2.1621    6.0064    4.9686 C   0  0
    1.1769    5.6291    0.8577 C   0  0
    0.6878    4.5626    0.4229 O   0  0
    2.2921   12.7328   -2.2082 H   0  0
    0.8650   12.3523   -0.7859 H   0  0
   -0.4047   12.2151   -2.1764 H   0  0
    0.3993    9.9311   -2.5995 H   0  0
    2.0612    8.2165   -2.1437 H   0  0
    1.5237    8.3228    0.9396 H   0  0
   -0.5578    7.7443   -1.2577 H   0  0
   -0.3705   10.3498    0.3396 H   0  0
   -2.3407   10.1757   -0.3104 H   0  0
    4.6745   10.7788   -0.6660 H   0  0
    6.2548   11.7290   -2.3139 H   0  0
    6.1457    8.0563   -4.5721 H   0  0
    5.1839    5.9068   -1.0312 H   0  0
    5.0272    4.7740   -2.3952 H   0  0
    6.3242    5.9931   -2.3952 H   0  0
    7.6164   11.5458   -4.4357 H   0  0
  -10.3064    8.4150   -4.2302 H   0  0
   -9.3558   12.4091   -2.8489 H   0  0
  -11.5114   13.2311   -3.7526 H   0  0
  -13.1067   11.6479   -4.8295 H   0  0
   -7.6794   10.7035   -2.7041 H   0  0
  -12.7804    7.7980   -3.5579 H   0  0
  -14.2399    8.9583   -3.8543 H   0  0
  -15.2396    7.2219   -5.1021 H   0  0
  -14.0412    5.2949   -5.7737 H   0  0
  -12.4470    6.3062   -5.7737 H   0  0
   -8.6775    7.8719   -2.9628 H   0  0
   -7.0374    6.3534   -2.2121 H   0  0
   -4.8760    8.1056   -0.0312 H   0  0
   -1.4850    5.5017   -0.6811 H   0  0
   -2.7614    4.2807   -2.4274 H   0  0
   -5.0871    4.9656   -2.9939 H   0  0
   -2.9764    2.2471    8.0760 H   0  0
   -0.2161    2.7138   11.3854 H   0  0
   -1.7284    1.3916   12.8264 H   0  0
   -3.8680    0.4960   11.9247 H   0  0
    0.4568    3.4915    9.2604 H   0  0
   -3.9250   -0.4245    8.0280 H   0  0
   -4.4275   -1.1907    9.6787 H   0  0
   -6.4784   -1.7352    8.6361 H   0  0
   -7.5421    0.1164    7.3988 H   0  0
   -5.9191    0.1164    6.4344 H   0  0
   -1.5509    3.4181    7.0293 H   0  0
   -0.7453    4.4291    5.1654 H   0  0
   -0.2864    4.6928    3.0243 H   0  0
    3.4037    7.0451    2.1240 H   0  0
    3.8790    7.1249    4.2687 H   0  0
    2.4196    6.1454    6.0186 H   0  0
  1  2  1  0
  3  2  1  0
  3  4  1  0
  4  5  1  0
  5  6  1  0
  5  7  1  0
  7  8  1  0
  7  9  1  0
  9 10  1  0
  9 11  1  0
  3 11  1  0
 11 12  1  0
  6 13  1  0
 15 16  1  0
 16 17  2  0
 17 18  1  0
 14 18  2  0
 14 13  1  0
 13 15  2  0
 14 19  1  0
 19 20  1  0
 17 21  1  0
 21 22  2  0
 23 24  2  0
 24 25  1  0
 25 26  2  0
 26 27  1  0
 27 28  2  0
 23 28  1  0
 24 29  1  0
 28 30  1  0
 30 31  1  0
 31 32  1  0
 32 33  2  0
 34 35  1  0
 35 37  1  0
 35 36  2  0
 29 34  2  0
 37 38  1  0
 39 40  2  0
 40 41  1  0
 41 42  2  0
 42 43  1  0
 43 38  2  0
 39 38  1  0
 40 44  1  0
 44 45  2  0
 10 44  1  0
 46 47  2  0
 47 48  1  0
 48 49  2  0
 49 50  1  0
 50 51  2  0
 46 51  1  0
 47 52  1  0
 51 53  1  0
 53 54  1  0
 54 55  1  0
 55 56  2  0
 57 58  1  0
 58 60  1  0
 58 59  2  0
 52 57  2  0
 60 61  1  0
 62 63  2  0
 63 64  1  0
 64 65  2  0
 65 66  1  0
 66 61  2  0
 62 61  1  0
 63 67  1  0
 67 68  2  0
  8 67  1  0
  1 69  1  0
  2 70  1  0
  2 71  1  0
  3 72  1  0
  5 73  1  0
  7 74  1  0
  9 75  1  0
 11 76  1  0
 12 77  1  0
 15 78  1  0
 16 79  1  0
 18 80  1  0
 20 81  1  0
 20 82  1  0
 20 83  1  0
 21 84  1  0
 23 85  1  0
 25 86  1  0
 26 87  1  0
 27 88  1  0
 29 89  1  0
 31 90  1  0
 31 91  1  0
 32 92  1  0
 33 93  1  0
 33 94  1  0
 34 95  1  0
 37 96  1  0
 39 97  1  0
 41 98  1  0
 42 99  1  0
 43100  1  0
 46101  1  0
 48102  1  0
 49103  1  0
 50104  1  0
 52105  1  0
 54106  1  0
 54107  1  0
 55108  1  0
 56109  1  0
 56110  1  0
 57111  1  0
 60112  1  0
 62113  1  0
 64114  1  0
 65115  1  0
 66116  1  0
M  END
> <Name>
TBS2010 - Produto - (19b)

$$$$
TBS2010 - Produto - (20b)
  SciTegic12132405553D

112117  0  0  0  0            999 V2000
    6.4725    3.1958  -10.6168 O   0  0
    5.0973    3.1566  -10.2464 C   0  0
    4.8634    2.0624   -9.1784 C   0  0  1  0  0  0
    5.7269    2.3776   -8.0699 O   0  0
    5.7179    1.4098   -6.9999 C   0  0  1  0  0  0
    6.6438    1.8160   -5.9704 O   0  0
    4.2961    1.3326   -6.3854 C   0  0  2  0  0  0
    4.3249    0.3084   -5.3734 O   0  0
    3.2431    1.0089   -7.4853 C   0  0  1  0  0  0
    1.9262    1.0880   -6.9054 O   0  0
    3.3813    1.9767   -8.6993 C   0  0  2  0  0  0
    2.5482    1.5408   -9.7731 O   0  0
    7.9483    1.8827   -6.3919 C   0  0
    8.4293    3.1148   -6.8976 C   0  0
    8.7684    0.7347   -6.2776 C   0  0
   10.1434    0.8267   -6.7007 C   0  0
   10.6106    2.1282   -7.2281 C   0  0
    9.7587    3.2978   -7.3406 C   0  0
   10.2377    4.5231   -7.8593 C   0  0
    9.5141    5.5390   -7.9637 O   0  0
   -3.1844   -3.0360  -15.6367 C   0  0
   -2.6363   -1.7504  -15.3892 C   0  0
   -2.8488   -0.7500  -16.3749 C   0  0
   -3.5691   -1.0190  -17.5529 C   0  0
   -4.1035   -2.2981  -17.7730 C   0  0
   -3.9189   -3.3084  -16.8111 C   0  0
   -1.8792   -1.4261  -14.2527 C   0  0
   -4.4083   -4.5646  -17.0356 O   0  0
   -5.6978   -4.7998  -16.4353 C   0  0
   -5.9951   -6.2124  -16.5426 C   0  0
   -5.2692   -7.1485  -15.9183 C   0  0
   -1.8404   -2.0823  -13.0728 C   0  0
   -1.0449   -1.7023  -11.9914 C   0  0
   -0.3056   -0.6901  -12.0752 O   0  0
   -1.0344   -2.4588  -10.8492 N   0  0
   -0.3103   -2.2069   -9.7124 C   0  0
   -0.1757   -0.9158   -9.1429 C   0  0
    0.6367   -0.6936   -8.0042 C   0  0
    1.3082   -1.7950   -7.4283 C   0  0
    1.1451   -3.0880   -7.9528 C   0  0
    0.3312   -3.2938   -9.0812 C   0  0
    0.7641    0.5989   -7.4345 C   0  0
   -0.2470    1.3280   -7.3218 O   0  0
   -4.6862    1.2515    0.8576 C   0  0
   -3.8697    2.2521    1.4524 C   0  0
   -4.4084    2.9550    2.5628 C   0  0
   -5.6804    2.6538    3.0783 C   0  0
   -6.4497    1.6369    2.4942 C   0  0
   -5.9572    0.9332    1.3812 C   0  0
   -2.5667    2.5676    1.0364 C   0  0
   -6.7268   -0.0306    0.7941 O   0  0
   -6.5605   -1.3370    1.3785 C   0  0
   -7.3915   -2.2701    0.6495 C   0  0
   -7.2588   -2.4897   -0.6643 C   0  0
   -1.9013    2.0751   -0.0292 C   0  0
   -0.5848    2.3870   -0.3482 C   0  0
    0.0908    3.1090    0.4247 O   0  0
   -0.0431    1.8496   -1.4843 N   0  0
    1.2036    2.0309   -2.0180 C   0  0
    1.6660    1.0376   -2.9104 C   0  0
    2.9487    1.1107   -3.5069 C   0  0
    3.7763    2.2123   -3.1898 C   0  0
    3.3179    3.2296   -2.3370 C   0  0
    2.0376    3.1449   -1.7647 C   0  0
    3.4081    0.0946   -4.3848 C   0  0
    3.0470   -1.0920   -4.2138 O   0  0
    7.0166    3.2114   -9.8260 H   0  0
    4.8980    4.1248   -9.7870 H   0  0
    4.5663    2.8634  -11.1520 H   0  0
    5.1480    1.0830   -9.5629 H   0  0
    6.0719    0.4671   -7.4171 H   0  0
    4.0083    2.2526   -5.8768 H   0  0
    3.3375   -0.0192   -7.8348 H   0  0
    2.9981    2.9650   -8.4451 H   0  0
    2.5308    0.5813   -9.7955 H   0  0
    7.7447    3.9615   -6.9483 H   0  0
    8.3545   -0.1904   -5.8766 H   0  0
   10.7961   -0.0431   -6.6257 H   0  0
   11.6457    2.2316   -7.5536 H   0  0
   11.2546    4.7003   -8.2097 H   0  0
   -3.0378   -3.8329  -14.9076 H   0  0
   -2.4480    0.2522  -16.2231 H   0  0
   -3.7134   -0.2351  -18.2964 H   0  0
   -4.6596   -2.5060  -18.6871 H   0  0
   -1.2355   -0.5473  -14.2916 H   0  0
   -5.6012   -4.5720  -15.3737 H   0  0
   -6.4327   -4.2703  -17.0416 H   0  0
   -6.8243   -6.5984  -17.1356 H   0  0
   -5.7198   -8.1080  -15.6642 H   0  0
   -4.2278   -6.9511  -15.6642 H   0  0
   -2.4814   -2.9599  -12.9893 H   0  0
   -1.6177   -3.2833  -10.8448 H   0  0
   -0.7081   -0.0764   -9.5900 H   0  0
    1.9606   -1.6451   -6.5680 H   0  0
    1.6506   -3.9322   -7.4839 H   0  0
    0.1965   -4.3034   -9.4694 H   0  0
   -4.3290    0.7151   -0.0215 H   0  0
   -3.8284    3.7491    3.0332 H   0  0
   -6.0703    3.2091    3.9314 H   0  0
   -7.4297    1.3935    2.9048 H   0  0
   -1.9957    3.2912    1.6182 H   0  0
   -5.5246   -1.6313    1.2098 H   0  0
   -6.9535   -1.2836    2.3937 H   0  0
   -8.1788   -2.8531    1.1275 H   0  0
   -8.1440   -2.5791   -1.2940 H   0  0
   -6.2656   -2.5791   -1.1043 H   0  0
   -2.4574    1.3880   -0.6670 H   0  0
   -0.6500    1.2310   -2.0031 H   0  0
    1.0169    0.1938   -3.1445 H   0  0
    4.7807    2.2781   -3.6082 H   0  0
    3.9564    4.0857   -2.1191 H   0  0
    1.6883    3.9504   -1.1188 H   0  0
  1  2  1  0
  3  2  1  0
  3  4  1  0
  4  5  1  0
  5  6  1  0
  5  7  1  0
  7  8  1  0
  7  9  1  0
  9 10  1  0
  9 11  1  0
  3 11  1  0
 11 12  1  0
  6 13  1  0
 15 16  1  0
 16 17  2  0
 17 18  1  0
 14 18  2  0
 14 13  1  0
 13 15  2  0
 18 19  1  0
 19 20  2  0
 21 22  2  0
 22 23  1  0
 23 24  2  0
 24 25  1  0
 25 26  2  0
 21 26  1  0
 22 27  1  0
 26 28  1  0
 28 29  1  0
 29 30  1  0
 30 31  2  0
 32 33  1  0
 33 35  1  0
 33 34  2  0
 27 32  2  0
 35 36  1  0
 37 38  2  0
 38 39  1  0
 39 40  2  0
 40 41  1  0
 41 36  2  0
 37 36  1  0
 38 42  1  0
 42 43  2  0
 10 42  1  0
 44 45  2  0
 45 46  1  0
 46 47  2  0
 47 48  1  0
 48 49  2  0
 44 49  1  0
 45 50  1  0
 49 51  1  0
 51 52  1  0
 52 53  1  0
 53 54  2  0
 55 56  1  0
 56 58  1  0
 56 57  2  0
 50 55  2  0
 58 59  1  0
 60 61  2  0
 61 62  1  0
 62 63  2  0
 63 64  1  0
 64 59  2  0
 60 59  1  0
 61 65  1  0
 65 66  2  0
  8 65  1  0
  1 67  1  0
  2 68  1  0
  2 69  1  0
  3 70  1  0
  5 71  1  0
  7 72  1  0
  9 73  1  0
 11 74  1  0
 12 75  1  0
 14 76  1  0
 15 77  1  0
 16 78  1  0
 17 79  1  0
 19 80  1  0
 21 81  1  0
 23 82  1  0
 24 83  1  0
 25 84  1  0
 27 85  1  0
 29 86  1  0
 29 87  1  0
 30 88  1  0
 31 89  1  0
 31 90  1  0
 32 91  1  0
 35 92  1  0
 37 93  1  0
 39 94  1  0
 40 95  1  0
 41 96  1  0
 44 97  1  0
 46 98  1  0
 47 99  1  0
 48100  1  0
 50101  1  0
 52102  1  0
 52103  1  0
 53104  1  0
 54105  1  0
 54106  1  0
 55107  1  0
 58108  1  0
 60109  1  0
 62110  1  0
 63111  1  0
 64112  1  0
M  END
> <Name>
TBS2010 - Produto - (20b)

$$$$
RMRV2007_29
  SciTegic12132405553D

 40 40  0  0  0  0            999 V2000
   -4.0333    1.4083   -0.6089 C   0  0  2  0  0  0
   -3.6782   -0.0017    0.0699 C   0  0  2  0  0  0
   -2.2335   -0.6055   -0.1224 C   0  0  1  0  0  0
   -1.1468    0.1567    0.5664 C   0  0
   -2.2743   -1.8815    0.5120 O   0  0
   -4.5793   -0.9389   -0.5162 O   0  0
   -3.8604    1.3018   -2.0264 O   0  0
   -1.2078    0.6623    1.7222 N   0  0
   -3.2471    2.6643   -0.1253 C   0  0
   -1.8671    2.5791   -0.4403 O   0  0
   -1.1386    3.8416    0.0660 P   0  0
    0.3873    3.6371   -0.2851 O   0  0
   -1.3045    3.9187    1.4336 O   0  0
   -1.8324    5.0737   -0.6471 O   0  0
   -1.4979    6.3584   -0.1018 C   0  0
   -2.2752    7.4435   -0.8612 C   0  0
    1.2931    4.3974    0.5369 C   0  0
    2.7349    4.0776    0.1176 C   0  0
    0.0017    1.2636    1.9435 N   0  0
    0.0652    0.4300    0.0669 N   0  0
    0.7326    1.1180    0.9706 N   0  0
   -5.0936    1.5952   -0.3889 H   0  0
   -3.8739    0.0691    1.1489 H   0  0
   -1.9951   -0.7382   -1.1872 H   0  0
   -2.4865   -1.7628    1.4709 H   0  0
   -5.5088   -0.6342   -0.3717 H   0  0
   -2.9077    1.1479   -2.2393 H   0  0
   -3.6551    3.5482   -0.6335 H   0  0
   -3.3763    2.7770    0.9598 H   0  0
   -0.4262    6.5431   -0.2104 H   0  0
   -1.7724    6.3877    0.9621 H   0  0
   -2.0244    8.4311   -0.4477 H   0  0
   -3.3546    7.2633   -0.7531 H   0  0
   -2.0025    7.4112   -1.9259 H   0  0
    1.1499    4.1194    1.5909 H   0  0
    1.1119    5.4660    0.4130 H   0  0
    3.4342    4.6518    0.7422 H   0  0
    2.8774    4.3490   -0.9384 H   0  0
    2.9228    3.0017    0.2489 H   0  0
    0.3995    0.1646   -0.8302 H   0  0
  1  2  1  0
  2  3  1  0
  3  4  1  0
  3  5  1  0
  2  6  1  0
  1  7  1  0
  1  9  1  0
  9 10  1  0
 10 11  1  0
 11 12  1  0
 11 13  2  0
 11 14  1  0
 15 16  1  0
 14 15  1  0
 17 18  1  0
 12 17  1  0
 20 21  1  0
 19 21  2  0
  4 20  1  0
 19  8  1  0
  4  8  2  0
  1 22  1  0
  2 23  1  0
  3 24  1  0
  5 25  1  0
  6 26  1  0
  7 27  1  0
  9 28  1  0
  9 29  1  0
 15 30  1  0
 15 31  1  0
 16 32  1  0
 16 33  1  0
 16 34  1  0
 17 35  1  0
 17 36  1  0
 18 37  1  0
 18 38  1  0
 18 39  1  0
 20 40  1  0
M  END
> <Name>
RMRV2007_29

> <Clean Energy>
35.4746

$$$$
RMRV2007_32Z
  SciTegic12132405553D

 22 21  0  0  0  0            999 V2000
   -1.8902    2.7477   -1.4659 O   0  0
   -3.2948    2.5855   -1.2695 C   0  0
   -3.6272    1.8410    0.0644 C   0  0  2  0  0  0
   -3.0790    0.3653    0.1268 C   0  0  2  0  0  0
   -1.5349    0.2635    0.0630 C   0  0  1  0  0  0
   -0.9307    0.9800    1.2583 C   0  0
    0.0244    1.8370    1.1795 N   0  0
   -1.2221   -1.1240    0.1580 O   0  0
   -3.6323   -0.3716   -0.9644 O   0  0
   -5.0484    1.7775    0.1732 O   0  0
    0.6623    2.2536    0.0544 O   0  0
   -1.5116    3.2696   -0.7153 H   0  0
   -3.7529    3.5838   -1.2357 H   0  0
   -3.7187    2.0206   -2.1116 H   0  0
   -3.2253    2.4180    0.9083 H   0  0
   -3.4053   -0.0831    1.0755 H   0  0
   -1.1460    0.6657   -0.8731 H   0  0
   -1.3256    0.7617    2.2179 H   0  0
   -1.5828   -1.4828    1.0064 H   0  0
   -4.6193   -0.3482   -0.9132 H   0  0
   -5.4195    2.6939    0.1577 H   0  0
    0.3338    1.8333   -0.7603 H   0  0
  1  2  1  0
  3  2  1  0
  3  4  1  0
  4  5  1  0
  5  6  1  0
  6  7  2  0
  5  8  1  0
  4  9  1  0
  3 10  1  0
  7 11  1  0
  1 12  1  0
  2 13  1  0
  2 14  1  0
  3 15  1  0
  4 16  1  0
  5 17  1  0
  6 18  1  0
  8 19  1  0
  9 20  1  0
 10 21  1  0
 11 22  1  0
M  END
> <Name>
RMRV2007_32Z

> <Clean Energy>
13.2542

$$$$
RMRV2007_32E
  SciTegic12132405553D

 22 21  0  0  0  0            999 V2000
   -2.0586    2.8853   -1.5150 O   0  0
   -3.4444    2.6327   -1.2809 C   0  0
   -3.6909    1.8750    0.0640 C   0  0  2  0  0  0
   -3.0458    0.4377    0.1166 C   0  0  2  0  0  0
   -1.4991    0.4329    0.0102 C   0  0  1  0  0  0
   -0.9194    1.1922    1.1637 C   0  0
   -0.1596    2.1872    0.9484 N   0  0
   -1.1007   -0.9328    0.1061 O   0  0
   -3.5804   -0.3396   -0.9559 O   0  0
   -5.1014    1.7192    0.2122 O   0  0
    0.3503    2.8663    1.9644 O   0  0
   -1.6956    3.4354   -0.7766 H   0  0
   -3.9658    3.5990   -1.2380 H   0  0
   -3.8527    2.0369   -2.1094 H   0  0
   -3.3049    2.4815    0.8945 H   0  0
   -3.3166   -0.0250    1.0757 H   0  0
   -1.1638    0.8634   -0.9401 H   0  0
   -1.1501    0.9024    2.1572 H   0  0
   -1.4161   -1.3054    0.9665 H   0  0
   -4.5650   -0.3792   -0.8773 H   0  0
   -5.5320    2.6093    0.2037 H   0  0
    0.0412    2.4704    2.8170 H   0  0
  1  2  1  0
  3  2  1  0
  3  4  1  0
  4  5  1  0
  5  6  1  0
  6  7  2  0
  5  8  1  0
  4  9  1  0
  3 10  1  0
  7 11  1  0
  1 12  1  0
  2 13  1  0
  2 14  1  0
  3 15  1  0
  4 16  1  0
  5 17  1  0
  6 18  1  0
  8 19  1  0
  9 20  1  0
 10 21  1  0
 11 22  1  0
M  END
> <Name>
RMRV2007_32E

> <Clean Energy>
10.2481

$$$$
RMRV2007_33
  SciTegic12132405553D

 35 34  0  0  0  0            999 V2000
   -3.6785    3.7246    0.0474 O   0  0
   -3.8250    2.8696   -1.0867 C   0  0
   -4.3807    1.4989   -0.6236 C   0  0  2  0  0  0
   -3.5216    0.7033    0.4582 C   0  0  2  0  0  0
   -2.0754    0.1596    0.0619 C   0  0  1  0  0  0
   -0.9896    1.2248   -0.2513 C   0  0
   -1.6045   -0.6002    1.1789 O   0  0
   -4.2889   -0.4572    0.7713 O   0  0
   -4.5461    0.6617   -1.7665 O   0  0
   -0.8522    2.3210    1.2092 S   0  0
    0.5433    0.3052   -0.6369 S   0  0
    0.2542    3.7292    0.9643 C   0  0
    0.2574    4.5918    2.2348 C   0  0
    1.9141    1.3567   -1.1748 C   0  0
    3.1290    0.4744   -1.5010 C   0  0
   -4.5569    3.8408    0.4865 H   0  0
   -4.5308    3.3209   -1.7977 H   0  0
   -2.8644    2.7458   -1.5773 H   0  0
   -5.3623    1.6982   -0.1716 H   0  0
   -3.4258    1.3307    1.3551 H   0  0
   -2.1783   -0.5034   -0.8085 H   0  0
   -1.2865    1.8062   -1.1179 H   0  0
   -1.5225   -0.0172    1.9706 H   0  0
   -5.1874   -0.1826    1.0796 H   0  0
   -5.1274    1.1164   -2.4243 H   0  0
   -0.1002    4.3297    0.1143 H   0  0
    1.2685    3.3762    0.7670 H   0  0
    0.9280    5.4515    2.0923 H   0  0
    0.6082    3.9892    3.0851 H   0  0
   -0.7626    4.9507    2.4354 H   0  0
    2.1817    2.0545   -0.3779 H   0  0
    1.6163    1.9175   -2.0721 H   0  0
    3.9651    1.1089   -1.8290 H   0  0
    2.8650   -0.2293   -2.3038 H   0  0
    3.4246   -0.0874   -0.6031 H   0  0
  1  2  1  0
  3  2  1  0
  3  4  1  0
  4  5  1  0
  5  6  1  0
  5  7  1  0
  4  8  1  0
  3  9  1  0
  6 10  1  0
  6 11  1  0
 12 13  1  0
 10 12  1  0
 14 15  1  0
 11 14  1  0
  1 16  1  0
  2 17  1  0
  2 18  1  0
  3 19  1  0
  4 20  1  0
  5 21  1  0
  6 22  1  0
  7 23  1  0
  8 24  1  0
  9 25  1  0
 12 26  1  0
 12 27  1  0
 13 28  1  0
 13 29  1  0
 13 30  1  0
 14 31  1  0
 14 32  1  0
 15 33  1  0
 15 34  1  0
 15 35  1  0
M  END
> <Name>
RMRV2007_33

> <Clean Energy>
3.78035

$$$$
RMRV2007_34
  SciTegic12132405553D

 52 51  0  0  0  0            999 V2000
   -3.7543    1.5658    0.7738 C   0  0  2  0  0  0
   -3.3636    0.2316    0.0144 C   0  0  2  0  0  0
   -1.8359    0.0182   -0.3562 C   0  0  1  0  0  0
   -0.8463   -0.0988    0.8612 C   0  0
   -1.7632   -1.2207   -1.0572 O   0  0
   -4.0908    0.1964   -1.2195 O   0  0
   -5.1617    1.5561    1.0356 O   0  0
   -0.7828    1.4493    1.8477 S   0  0
    0.7725   -0.5040    0.1058 S   0  0
    2.0761   -0.9122    1.2929 C   0  0
    3.3602   -1.2683    0.5281 C   0  0
   -3.4450    2.8473   -0.0558 C   0  0
   -2.0524    2.9713   -0.3333 O   0  0
    0.2078    1.3453    3.3565 C   0  0
    0.1366    2.6914    4.0924 C   0  0
   -1.7963    4.2508   -1.1572 P   0  0
   -0.2409    4.2702   -1.4551 O   0  0
   -2.5101    4.1611   -2.3347 O   0  0
   -2.3283    5.4593   -0.2857 O   0  0
   -2.6519    6.6450   -1.0393 C   0  0
   -3.1837    7.7186   -0.0789 C   0  0
    0.1741    5.2122   -2.4556 C   0  0
    1.6908    5.0879   -2.6663 C   0  0
   -3.2239    1.6096    1.7268 H   0  0
   -3.6657   -0.6185    0.6414 H   0  0
   -1.5002    0.8280   -1.0161 H   0  0
   -1.1783   -0.9315    1.4966 H   0  0
   -2.0631   -1.9509   -0.4614 H   0  0
   -5.0577    0.2387   -1.0445 H   0  0
   -5.6619    1.5457    0.1877 H   0  0
    1.7619   -1.7716    1.9021 H   0  0
    2.2717   -0.0555    1.9399 H   0  0
    4.1561   -1.5180    1.2446 H   0  0
    3.6723   -0.4088   -0.0826 H   0  0
    3.1694   -2.1324   -0.1248 H   0  0
   -4.0035    2.8066   -1.0010 H   0  0
   -3.7666    3.7263    0.5186 H   0  0
   -0.1913    0.5516    4.0039 H   0  0
    1.2471    1.1281    3.1076 H   0  0
    0.7356    2.6380    5.0131 H   0  0
   -0.9099    2.9138    4.3471 H   0  0
    0.5324    3.4849    3.4420 H   0  0
   -3.4245    6.4055   -1.7835 H   0  0
   -1.7638    7.0263   -1.5451 H   0  0
   -3.4350    8.6261   -0.6466 H   0  0
   -2.4126    7.9547    0.6686 H   0  0
   -4.0835    7.3416    0.4285 H   0  0
   -0.0591    6.2290   -2.1313 H   0  0
   -0.3457    4.9972   -3.4000 H   0  0
    2.0143    5.8070   -3.4327 H   0  0
    1.9319    4.0668   -2.9956 H   0  0
    2.2100    5.3007   -1.7206 H   0  0
  1  2  1  0
  2  3  1  0
  3  4  1  0
  3  5  1  0
  2  6  1  0
  1  7  1  0
  4  8  1  0
  4  9  1  0
 10 11  1  0
  9 10  1  0
  1 12  1  0
 12 13  1  0
  8 14  1  0
 14 15  1  0
 13 16  1  0
 16 17  1  0
 16 18  2  0
 16 19  1  0
 20 21  1  0
 19 20  1  0
 22 23  1  0
 17 22  1  0
  1 24  1  0
  2 25  1  0
  3 26  1  0
  4 27  1  0
  5 28  1  0
  6 29  1  0
  7 30  1  0
 10 31  1  0
 10 32  1  0
 11 33  1  0
 11 34  1  0
 11 35  1  0
 12 36  1  0
 12 37  1  0
 14 38  1  0
 14 39  1  0
 15 40  1  0
 15 41  1  0
 15 42  1  0
 20 43  1  0
 20 44  1  0
 21 45  1  0
 21 46  1  0
 21 47  1  0
 22 48  1  0
 22 49  1  0
 23 50  1  0
 23 51  1  0
 23 52  1  0
M  END
> <Name>
RMRV2007_34

> <Clean Energy>
4.0176

$$$$
RMRV2007_36
  SciTegic12132405553D

 39 38  0  0  0  0            999 V2000
   -1.8153    2.9286   -0.3623 O   0  0
   -3.1875    2.5567   -0.4361 C   0  0
   -3.5998    1.5363    0.7102 C   0  0  2  0  0  0
   -2.7872    0.1430    0.6169 C   0  0  2  0  0  0
   -1.2631    0.3393    0.8105 C   0  0  1  0  0  0
   -1.0209    0.9550    2.1204 C   0  0
   -0.6299   -0.9453    0.7442 O   0  0
   -2.9587   -0.5132   -0.6728 O   0  0
   -5.0124    1.2484    0.6009 O   0  0
    0.7634   -0.8388    0.8380 C   0  0
    1.6005   -2.0801    0.7973 C   0  0
   -4.2327   -1.0639   -0.9038 C   0  0
   -4.5135   -1.7309   -2.2133 C   0  0
   -5.8543    2.3415    0.8801 C   0  0
   -7.3367    2.1618    0.7769 C   0  0
   -5.1056   -1.0547   -0.0294 O   0  0
    1.3137    0.2652    0.9298 O   0  0
   -5.3996    3.4313    1.2489 O   0  0
   -0.8309    1.4378    3.1474 N   0  0
   -1.5080    3.8132   -1.3859 C   0  0
   -0.1132    4.3408   -1.5138 C   0  0
   -2.3779    4.1628   -2.1919 O   0  0
   -3.7828    3.4720   -0.3436 H   0  0
   -3.3874    2.0932   -1.4124 H   0  0
   -3.4132    1.9863    1.6942 H   0  0
   -3.1325   -0.5247    1.4179 H   0  0
   -0.8600    0.9755    0.0187 H   0  0
    2.6650   -1.8298    0.6821 H   0  0
    1.2454   -2.7326   -0.0135 H   0  0
    1.4459   -2.6315    1.7360 H   0  0
   -5.5792   -1.6333   -2.4661 H   0  0
   -4.2928   -2.8024   -2.1028 H   0  0
   -3.8602   -1.3225   -2.9979 H   0  0
   -7.8624    3.1017    0.9983 H   0  0
   -7.6442    1.3704    1.4757 H   0  0
   -7.5816    1.7978   -0.2315 H   0  0
   -0.1459    5.4180   -1.7319 H   0  0
    0.3598    3.8551   -2.3794 H   0  0
    0.4690    4.1234   -0.6063 H   0  0
  1  2  1  0
  3  2  1  0
  3  4  1  0
  4  5  1  0
  5  6  1  0
  5  7  1  0
  4  8  1  0
  3  9  1  0
 10 11  1  0
  7 10  1  0
 12 13  1  0
  8 12  1  0
 14 15  1  0
  9 14  1  0
 12 16  2  0
 10 17  2  0
 14 18  2  0
  6 19  3  0
 20 21  1  0
  1 20  1  0
 20 22  2  0
  2 23  1  0
  2 24  1  0
  3 25  1  0
  4 26  1  0
  5 27  1  0
 11 28  1  0
 11 29  1  0
 11 30  1  0
 13 31  1  0
 13 32  1  0
 13 33  1  0
 15 34  1  0
 15 35  1  0
 15 36  1  0
 21 37  1  0
 21 38  1  0
 21 39  1  0
M  END
> <Name>
RMRV2007_36

> <Clean Energy>
50.1498

$$$$
RMRV2007_37
  SciTegic12132405553D

 43 43  0  0  0  0            999 V2000
   -2.2957    2.5715   -2.0254 O   0  0
   -3.6056    2.2552   -1.5112 C   0  0
   -3.6441    1.7263    0.0044 C   0  0  2  0  0  0
   -2.8476    0.3274    0.1772 C   0  0  2  0  0  0
   -1.3335    0.4553   -0.1085 C   0  0  1  0  0  0
   -0.7143    1.4074    0.8894 C   0  0
   -0.7846   -0.8583    0.0937 O   0  0
   -3.3519   -0.6953   -0.7308 O   0  0
   -5.0204    1.5092    0.3811 O   0  0
    0.5838   -0.9245   -0.2159 C   0  0
    1.3113   -2.2217   -0.0438 C   0  0
   -4.6258   -1.2057   -0.4187 C   0  0
   -5.2383   -2.2368   -1.3131 C   0  0
   -5.7835    2.6875    0.4774 C   0  0
   -7.2320    2.5883    0.8408 C   0  0
   -5.2241   -0.8597    0.6054 O   0  0
    1.1908    0.0580   -0.6592 O   0  0
   -5.2742    3.8027    0.3104 O   0  0
   -1.7551    3.7307   -1.4323 C   0  0
   -0.4031    4.2127   -1.8609 C   0  0
   -2.3917    4.3715   -0.5875 O   0  0
   -1.0708    1.5199    2.0969 N   0  0
   -0.2756    2.4480    2.5857 N   0  0
    0.3337    2.2851    0.6191 N   0  0
    0.5707    2.8903    1.6460 N   0  0
   -4.2096    3.1648   -1.6058 H   0  0
   -4.0471    1.4684   -2.1386 H   0  0
   -3.2161    2.4729    0.6862 H   0  0
   -2.9456   -0.0218    1.2139 H   0  0
   -1.1256    0.7706   -1.1374 H   0  0
    2.3403   -2.1474   -0.4241 H   0  0
    0.7515   -3.0178   -0.5556 H   0  0
    1.3148   -2.4808    1.0248 H   0  0
   -6.1985   -2.5870   -0.9079 H   0  0
   -4.5308   -3.0699   -1.4334 H   0  0
   -5.3747   -1.7982   -2.3123 H   0  0
   -7.7016    3.5824    0.8569 H   0  0
   -7.3155    2.1025    1.8237 H   0  0
   -7.7341    1.9240    0.1225 H   0  0
   -0.1166    5.1190   -1.3087 H   0  0
   -0.4221    4.4028   -2.9435 H   0  0
    0.3267    3.4053   -1.6995 H   0  0
   -0.2998    2.7757    3.5238 H   0  0
  1  2  1  0
  3  2  1  0
  3  4  1  0
  4  5  1  0
  5  6  1  0
  5  7  1  0
  4  8  1  0
  3  9  1  0
 10 11  1  0
  7 10  1  0
 12 13  1  0
  8 12  1  0
 14 15  1  0
  9 14  1  0
 12 16  2  0
 10 17  2  0
 14 18  2  0
 19 20  1  0
  1 19  1  0
 19 21  2  0
  6 22  2  0
 24 25  2  0
 23 25  1  0
 23 22  1  0
  6 24  1  0
  2 26  1  0
  2 27  1  0
  3 28  1  0
  4 29  1  0
  5 30  1  0
 11 31  1  0
 11 32  1  0
 11 33  1  0
 13 34  1  0
 13 35  1  0
 13 36  1  0
 15 37  1  0
 15 38  1  0
 15 39  1  0
 20 40  1  0
 20 41  1  0
 20 42  1  0
 23 43  1  0
M  END
> <Name>
RMRV2007_37

> <Clean Energy>
81.195

$$$$
RMRV2007_38
  SciTegic12132405553D

 23 23  0  0  0  0            999 V2000
   -2.6763    3.1187    1.6502 O   0  0
   -3.1379    3.0734    0.3001 C   0  0
   -3.9161    1.7526    0.0718 C   0  0  2  0  0  0
   -3.1045    0.4149    0.3397 C   0  0  2  0  0  0
   -1.8679    0.1285   -0.5995 C   0  0  1  0  0  0
   -0.7232    1.0839   -0.4326 C   0  0
   -1.3819   -1.1485   -0.1940 O   0  0
   -4.0245   -0.6544    0.1310 O   0  0
   -4.3879    1.7287   -1.2740 O   0  0
   -0.0787    1.6459   -1.3614 N   0  0
    0.8644    2.4317   -0.7543 N   0  0
   -0.2044    1.5004    0.7325 N   0  0
    0.7777    2.3366    0.4648 N   0  0
   -3.4504    3.0672    2.2636 H   0  0
   -3.8085    3.9234    0.1125 H   0  0
   -2.2863    3.1357   -0.3814 H   0  0
   -4.7730    1.7611    0.7595 H   0  0
   -2.7639    0.4066    1.3849 H   0  0
   -2.1777    0.0879   -1.6531 H   0  0
   -1.1041   -1.1053    0.7548 H   0  0
   -4.8022   -0.5389    0.7308 H   0  0
   -4.9387    2.5322   -1.4424 H   0  0
   -0.5102    1.2287    1.6390 H   0  0
  1  2  1  0
  3  2  1  0
  3  4  1  0
  4  5  1  0
  5  6  1  0
  5  7  1  0
  4  8  1  0
  3  9  1  0
  6 10  2  0
 12 13  1  0
 11 13  2  0
 11 10  1  0
  6 12  1  0
  1 14  1  0
  2 15  1  0
  2 16  1  0
  3 17  1  0
  4 18  1  0
  5 19  1  0
  7 20  1  0
  8 21  1  0
  9 22  1  0
 12 23  1  0
M  END
> <Name>
RMRV2007_38

> <Clean Energy>
32.3931

$$$$
RMRV2007_39
  SciTegic12132405553D

 46 46  0  0  0  0            999 V2000
   -2.3208    2.4203   -2.0805 O   0  0
   -3.6141    2.1919   -1.4821 C   0  0
   -3.5902    1.6479    0.0291 C   0  0  2  0  0  0
   -2.8878    0.1926    0.1393 C   0  0  2  0  0  0
   -1.3927    0.2166   -0.2487 C   0  0  1  0  0  0
   -0.6473    1.1146    0.7057 C   0  0
   -0.9234   -1.1316   -0.0877 O   0  0
   -3.5244   -0.7823   -0.7372 O   0  0
   -4.9503    1.5262    0.4963 O   0  0
    0.4160   -1.2828   -0.4841 C   0  0
    1.0672   -2.6258   -0.3661 C   0  0
   -4.8079   -1.2027   -0.3419 C   0  0
   -5.5524   -2.1784   -1.1974 C   0  0
   -5.6174    2.7552    0.6525 C   0  0
   -7.0418    2.7565    1.1121 C   0  0
   -5.3092   -0.8243    0.7221 O   0  0
    1.0572   -0.3365   -0.9579 O   0  0
   -5.0405    3.8327    0.4595 O   0  0
   -1.6583    3.5300   -1.5150 C   0  0
   -0.3042    3.9172   -2.0266 C   0  0
   -2.1884    4.2031   -0.6232 O   0  0
   -0.8778    1.1981    1.9542 N   0  0
   -0.0184    2.1011    2.4640 N   0  0
    0.3492    1.9338    0.3594 O   0  0
    0.7001    2.5267    1.5044 C   0  0
    1.7830    3.5510    1.6339 C   0  0
   -4.1554    3.1437   -1.5286 H   0  0
   -4.1522    1.4470   -2.0848 H   0  0
   -3.0645    2.3539    0.6854 H   0  0
   -2.9404   -0.1589    1.1786 H   0  0
   -1.2363    0.5278   -1.2877 H   0  0
    2.0855   -2.6056   -0.7803 H   0  0
    0.4432   -3.3715   -0.8797 H   0  0
    1.0863   -2.9141    0.6948 H   0  0
   -6.4940   -2.4819   -0.7176 H   0  0
   -4.9070   -3.0466   -1.3944 H   0  0
   -5.7493   -1.7095   -2.1724 H   0  0
   -7.4267    3.7832    1.1948 H   0  0
   -7.1012    2.2365    2.0791 H   0  0
   -7.6424    2.1661    0.4050 H   0  0
    0.0632    4.8205   -1.5187 H   0  0
   -0.3632    4.0691   -3.1136 H   0  0
    0.3844    3.0737   -1.8665 H   0  0
    1.8252    3.9500    2.6575 H   0  0
    1.6078    4.3510    0.8991 H   0  0
    2.7407    3.0839    1.3629 H   0  0
  1  2  1  0
  3  2  1  0
  3  4  1  0
  4  5  1  0
  5  6  1  0
  5  7  1  0
  4  8  1  0
  3  9  1  0
 10 11  1  0
  7 10  1  0
 12 13  1  0
  8 12  1  0
 14 15  1  0
  9 14  1  0
 12 16  2  0
 10 17  2  0
 14 18  2  0
 19 20  1  0
  1 19  1  0
 19 21  2  0
  6 22  2  0
 24 25  1  0
 23 25  2  0
 23 22  1  0
  6 24  1  0
 25 26  1  0
  2 27  1  0
  2 28  1  0
  3 29  1  0
  4 30  1  0
  5 31  1  0
 11 32  1  0
 11 33  1  0
 11 34  1  0
 13 35  1  0
 13 36  1  0
 13 37  1  0
 15 38  1  0
 15 39  1  0
 15 40  1  0
 20 41  1  0
 20 42  1  0
 20 43  1  0
 26 44  1  0
 26 45  1  0
 26 46  1  0
M  END
> <Name>
RMRV2007_39

> <Clean Energy>
92.2757

$$$$
RMRV2007_41
  SciTegic12132405553D

 71 70  0  0  0  0            999 V2000
   -2.3057    2.9357   -0.8731 O   0  0
   -3.5816    2.6441   -0.3184 C   0  0
   -3.4492    1.6286    0.8902 C   0  0  2  0  0  0
   -2.8263    0.2006    0.4184 C   0  0  2  0  0  0
   -1.3766    0.2989   -0.1908 C   0  0  1  0  0  0
   -0.3832    0.9337    0.8847 C   0  0
   -1.0165   -1.0596   -0.5661 O   0  0
   -3.6351   -0.4224   -0.6209 O   0  0
   -4.7520    1.3971    1.4691 O   0  0
   -0.4596   -0.1549    2.3578 S   0  0
    1.3125    1.1299    0.2115 S   0  0
    0.3806    0.5023    3.8197 C   0  0
   -0.2508    1.8534    4.2042 C   0  0
    2.4467    2.0244    1.2968 C   0  0
    3.8082    2.1554    0.5995 C   0  0
   -1.7503    3.9465   -2.1971 Si  0  0
   -2.0700    5.7720   -1.8411 C   0  0
   -1.5323    6.6264   -2.9980 C   0  0
   -3.5740    6.0429   -1.6937 C   0  0
   -1.3584    6.1636   -0.5413 C   0  0
   -2.6225    3.4381   -3.7648 C   0  0
    0.0855    3.6629   -2.3983 C   0  0
    0.0653   -1.1664   -1.4497 C   0  0
    0.5341   -2.5237   -1.8718 C   0  0
   -4.8807   -0.9210   -0.1988 C   0  0
   -5.7934   -1.5498   -1.2034 C   0  0
   -5.3110    2.5210    2.1066 C   0  0
   -6.6689    2.4049    2.7253 C   0  0
   -5.2124   -0.8991    0.9913 O   0  0
    0.5906   -0.1627   -1.9420 O   0  0
   -4.6893    3.5863    2.2036 O   0  0
   -4.0192    3.5827    0.0338 H   0  0
   -4.2308    2.2074   -1.0898 H   0  0
   -2.8032    2.0616    1.6646 H   0  0
   -2.7740   -0.4661    1.2874 H   0  0
   -1.4106    0.9216   -1.0894 H   0  0
   -0.7525    1.9322    1.1440 H   0  0
    1.4431    0.6395    3.6085 H   0  0
    0.2659   -0.2048    4.6534 H   0  0
    0.2538    2.2527    5.0954 H   0  0
   -1.3195    1.7092    4.4200 H   0  0
   -0.1380    2.5626    3.3711 H   0  0
    2.5735    1.4792    2.2341 H   0  0
    2.0423    3.0258    1.5037 H   0  0
    4.5041    2.7000    1.2538 H   0  0
    3.6837    2.7062   -0.3444 H   0  0
    4.2092    1.1533    0.3895 H   0  0
   -1.7159    7.6873   -2.7791 H   0  0
   -2.0463    6.3506   -3.9285 H   0  0
   -0.4533    6.4580   -3.1105 H   0  0
   -3.7299    7.1108   -1.4880 H   0  0
   -3.9747    5.4512   -0.8648 H   0  0
   -4.0900    5.7702   -2.6240 H   0  0
   -1.5400    7.2273   -0.3344 H   0  0
   -0.2791    5.9899   -0.6443 H   0  0
   -1.7522    5.5544    0.2855 H   0  0
   -2.2568    4.0493   -4.6021 H   0  0
   -3.7053    3.5881   -3.6457 H   0  0
   -2.4188    2.3770   -3.9673 H   0  0
    0.4619    4.2713   -3.2325 H   0  0
    0.2686    2.5979   -2.6066 H   0  0
    0.6042    3.9484   -1.4711 H   0  0
    1.2916   -2.4474   -2.6651 H   0  0
   -0.3317   -3.1176   -2.1988 H   0  0
    0.9507   -3.0372   -0.9932 H   0  0
   -6.6854   -1.9680   -0.7152 H   0  0
   -5.2398   -2.3246   -1.7534 H   0  0
   -6.0785   -0.7873   -1.9427 H   0  0
   -6.9751    3.3572    3.1817 H   0  0
   -6.6471    1.6011    3.4753 H   0  0
   -7.3847    2.0888    1.9526 H   0  0
  1  2  1  0
  3  2  1  0
  3  4  1  0
  4  5  1  0
  5  6  1  0
  5  7  1  0
  4  8  1  0
  3  9  1  0
  6 10  1  0
  6 11  1  0
 12 13  1  0
 10 12  1  0
 14 15  1  0
 11 14  1  0
  1 16  1  0
 16 17  1  0
 17 18  1  0
 17 19  1  0
 17 20  1  0
 16 21  1  0
 16 22  1  0
 23 24  1  0
  7 23  1  0
 25 26  1  0
  8 25  1  0
 27 28  1  0
  9 27  1  0
 25 29  2  0
 23 30  2  0
 27 31  2  0
  2 32  1  0
  2 33  1  0
  3 34  1  0
  4 35  1  0
  5 36  1  0
  6 37  1  0
 12 38  1  0
 12 39  1  0
 13 40  1  0
 13 41  1  0
 13 42  1  0
 14 43  1  0
 14 44  1  0
 15 45  1  0
 15 46  1  0
 15 47  1  0
 18 48  1  0
 18 49  1  0
 18 50  1  0
 19 51  1  0
 19 52  1  0
 19 53  1  0
 20 54  1  0
 20 55  1  0
 20 56  1  0
 21 57  1  0
 21 58  1  0
 21 59  1  0
 22 60  1  0
 22 61  1  0
 22 62  1  0
 24 63  1  0
 24 64  1  0
 24 65  1  0
 26 66  1  0
 26 67  1  0
 26 68  1  0
 28 69  1  0
 28 70  1  0
 28 71  1  0
M  END
> <Name>
RMRV2007_41

> <Clean Energy>
33.3569

$$$$
RMRV2007_42
  SciTegic12132405553D

 50 49  0  0  0  0            999 V2000
   -2.5532    1.4920   -2.7461 O   0  0
   -3.8186    1.5486   -2.0913 C   0  0
   -3.6792    1.7158   -0.5170 C   0  0  2  0  0  0
   -2.9095    0.4589    0.1640 C   0  0  2  0  0  0
   -1.4283    0.2671   -0.3286 C   0  0  1  0  0  0
   -0.5819    1.5812    0.0024 C   0  0
   -0.9389   -0.9119    0.3725 O   0  0
   -3.5813   -0.8017   -0.1255 O   0  0
   -4.9965    1.8181    0.0673 O   0  0
   -0.7155    1.8269    1.8152 S   0  0
    1.1532    1.4445   -0.5839 S   0  0
   -0.0691    3.4092    2.4102 C   0  0
   -0.8314    4.5589    1.7258 C   0  0
    2.1287    2.9558   -0.3977 C   0  0
    3.5388    2.7166   -0.9571 C   0  0
    0.2281   -1.4828   -0.1509 C   0  0
    0.8228   -2.6795    0.5233 C   0  0
   -4.8121   -0.9953    0.5280 C   0  0
   -5.5879   -2.2474    0.2667 C   0  0
   -5.6943    2.9911   -0.2754 C   0  0
   -7.0786    3.1949    0.2561 C   0  0
   -5.2378   -0.1797    1.3527 O   0  0
    0.7335   -1.0618   -1.1960 O   0  0
   -5.1743    3.8742   -0.9683 O   0  0
   -2.0561    2.3298   -2.5720 H   0  0
   -4.3652    2.4043   -2.5036 H   0  0
   -4.3797    0.6273   -2.3029 H   0  0
   -3.1317    2.6385   -0.2867 H   0  0
   -2.8737    0.6100    1.2489 H   0  0
   -1.4305    0.0727   -1.4051 H   0  0
   -1.0430    2.4275   -0.5191 H   0  0
    0.9954    3.4867    2.1821 H   0  0
   -0.2111    3.4736    3.4983 H   0  0
   -0.4451    5.5217    2.0892 H   0  0
   -1.9025    4.4791    1.9624 H   0  0
   -0.6913    4.4959    0.6367 H   0  0
    2.2029    3.2227    0.6582 H   0  0
    1.6471    3.7739   -0.9522 H   0  0
    4.1369    3.6328   -0.8470 H   0  0
    3.4696    2.4488   -2.0213 H   0  0
    4.0177    1.8965   -0.4027 H   0  0
    1.6620   -3.0825   -0.0619 H   0  0
    0.0377   -3.4354    0.6696 H   0  0
    1.1608   -2.3831    1.5268 H   0  0
   -6.4828   -2.2943    0.9037 H   0  0
   -4.9333   -3.1146    0.4355 H   0  0
   -5.8673   -2.2710   -0.7966 H   0  0
   -7.4928    4.1546   -0.0851 H   0  0
   -7.0454    3.1504    1.3543 H   0  0
   -7.7098    2.3553   -0.0694 H   0  0
  1  2  1  0
  3  2  1  0
  3  4  1  0
  4  5  1  0
  5  6  1  0
  5  7  1  0
  4  8  1  0
  3  9  1  0
  6 10  1  0
  6 11  1  0
 12 13  1  0
 10 12  1  0
 14 15  1  0
 11 14  1  0
 16 17  1  0
  7 16  1  0
 18 19  1  0
  8 18  1  0
 20 21  1  0
  9 20  1  0
 18 22  2  0
 16 23  2  0
 20 24  2  0
  1 25  1  0
  2 26  1  0
  2 27  1  0
  3 28  1  0
  4 29  1  0
  5 30  1  0
  6 31  1  0
 12 32  1  0
 12 33  1  0
 13 34  1  0
 13 35  1  0
 13 36  1  0
 14 37  1  0
 14 38  1  0
 15 39  1  0
 15 40  1  0
 15 41  1  0
 17 42  1  0
 17 43  1  0
 17 44  1  0
 19 45  1  0
 19 46  1  0
 19 47  1  0
 21 48  1  0
 21 49  1  0
 21 50  1  0
M  END
> <Name>
RMRV2007_42

> <Clean Energy>
42.7065

$$$$
RMRV2007_44
  SciTegic12132405553D

 29 28  0  0  0  0            999 V2000
   -2.7082    1.6151   -2.3597 O   0  0
   -3.9628    1.8112   -1.7082 C   0  0
   -3.8397    1.7500   -0.1512 C   0  0  2  0  0  0
   -3.3620    0.3519    0.3994 C   0  0  2  0  0  0
   -1.9409   -0.0601   -0.0623 C   0  0  2  0  0  0
   -1.6749   -1.3192    0.5520 O   0  0
   -4.2892   -0.6460   -0.0299 O   0  0
   -5.1360    2.0040    0.3881 O   0  0
   -0.9490    0.9452    0.4326 C   0  0
   -0.1484    1.6301   -0.5269 N   0  0
    0.7993    2.6025   -0.2677 N   0  0
    1.1495    3.1306    1.0108 C   0  0
    2.2085    4.1878    1.0766 C   0  0
    0.6226    2.7598    2.0608 O   0  0
   -0.8774    1.1534    1.6446 O   0  0
   -2.0763    2.3201   -2.0720 H   0  0
   -4.3425    2.8032   -1.9898 H   0  0
   -4.6734    1.0425   -2.0430 H   0  0
   -3.1476    2.5339    0.1860 H   0  0
   -3.3564    0.3996    1.4972 H   0  0
   -1.8875   -0.1465   -1.1534 H   0  0
   -1.7340   -1.2230    1.5347 H   0  0
   -5.1951   -0.4171    0.2931 H   0  0
   -5.4537    2.8866    0.0755 H   0  0
   -0.2861    1.3833   -1.4795 H   0  0
    1.2845    2.9739   -1.0517 H   0  0
    1.8329    5.0883    0.5694 H   0  0
    3.0879    3.8531    0.5074 H   0  0
    2.4676    4.4188    2.1200 H   0  0
  1  2  1  0
  3  2  1  0
  3  4  1  0
  4  5  1  0
  5  6  1  0
  4  7  1  0
  3  8  1  0
  5  9  1  0
  9 10  1  0
 10 11  1  0
 12 13  1  0
 11 12  1  0
 12 14  2  0
  9 15  2  0
  1 16  1  0
  2 17  1  0
  2 18  1  0
  3 19  1  0
  4 20  1  0
  5 21  1  0
  6 22  1  0
  7 23  1  0
  8 24  1  0
 10 25  1  0
 11 26  1  0
 13 27  1  0
 13 28  1  0
 13 29  1  0
M  END
> <Name>
RMRV2007_44

> <Clean Energy>
26.631

$$$$
RMRV2007_45
  SciTegic12132405553D

 18 18  0  0  0  0            999 V2000
   -0.3445    1.8000    0.2365 O   0  0
   -1.4788    1.0582   -0.1862 C   0  0  1  0  0  0
   -1.0752   -0.3393    0.3121 C   0  0  2  0  0  0
    0.3174   -0.3969   -0.2642 C   0  0  1  0  0  0
    0.7396    0.9516    0.1996 C   0  0
    1.8732    1.2371    0.5999 O   0  0
   -1.9239   -1.4258   -0.0799 O   0  0
    1.1207   -1.4948    0.1638 O   0  0
   -2.8178    1.5734    0.3660 C   0  0
   -3.8758    0.7232   -0.0741 O   0  0
   -1.5093    1.0521   -1.2847 H   0  0
   -1.0022   -0.3047    1.4079 H   0  0
    0.2340   -0.3871   -1.3603 H   0  0
   -2.8222   -1.3123    0.3107 H   0  0
    1.1768   -1.4926    1.1514 H   0  0
   -2.9942    2.5945   -0.0003 H   0  0
   -2.7819    1.5780    1.4645 H   0  0
   -3.9010    0.7158   -1.0630 H   0  0
  2  1  1  0
  3  2  1  0
  4  3  1  0
  4  5  1  0
  1  5  1  0
  5  6  2  0
  3  7  1  0
  4  8  1  0
  9 10  1  0
  2  9  1  0
  2 11  1  0
  3 12  1  0
  4 13  1  0
  7 14  1  0
  8 15  1  0
  9 16  1  0
  9 17  1  0
 10 18  1  0
M  END
> <Name>
RMRV2007_45

> <Clean Energy>
34.0383

$$$$
RMM2007 - Intermediário - (6)
  SciTegic12132405553D

 43 44  0  0  0  0            999 V2000
   -4.2059    2.1998   -6.1476 O   0  0
   -5.5071    2.2713   -5.5663 C   0  0
   -5.5741    1.3570   -4.3189 C   0  0  1  0  0  0
   -4.5628    1.8117   -3.3973 O   0  0
   -4.3673    0.9652   -2.2391 C   0  0  1  0  0  0
   -3.3074    1.4948   -1.4057 O   0  0
   -5.6846    0.8978   -1.4073 C   0  0  2  0  0  0
   -5.5270   -0.0564   -0.3467 N   0  0
   -6.8932    0.4975   -2.3102 C   0  0  1  0  0  0
   -8.1214    0.6086   -1.5860 O   0  0
   -6.9569    1.3642   -3.6019 C   0  0  2  0  0  0
   -7.9807    0.8738   -4.4660 O   0  0
   -6.0656    0.0345    0.8996 C   0  0
   -6.8092    0.9877    1.2299 O   0  0
   -5.7910   -1.0056    1.9037 C   0  0
   -2.1104    1.6430   -2.0608 C   0  0
   -0.6011    3.0134   -3.4081 C   0  0
   -1.8085    2.8607   -2.7024 C   0  0
   -1.1681    0.5954   -2.0900 C   0  0
    0.0419    0.7480   -2.7942 C   0  0
    0.3285    1.9501   -3.4845 C   0  0
    1.5642    2.1105   -4.2880 C   0  0
   -3.5460    2.1636   -5.4513 H   0  0
   -5.6178    3.3040   -5.2357 H   0  0
   -6.1813    1.8653   -6.3205 H   0  0
   -5.3471    0.3315   -4.6105 H   0  0
   -4.0326   -0.0020   -2.6139 H   0  0
   -5.8810    1.8475   -0.9099 H   0  0
   -4.9731   -0.8879   -0.4946 H   0  0
   -6.8294   -0.5598   -2.5674 H   0  0
   -7.9398    0.5922   -0.6435 H   0  0
   -7.2730    2.3846   -3.3854 H   0  0
   -8.7047    0.5269   -3.9396 H   0  0
   -5.9022   -0.5844    2.9028 H   0  0
   -6.4943   -1.8285    1.7760 H   0  0
   -4.7732   -1.3742    1.7760 H   0  0
   -0.3843    3.9622   -3.8990 H   0  0
   -2.5137    3.6902   -2.6525 H   0  0
   -1.3760   -0.3371   -1.5654 H   0  0
    0.7618   -0.0703   -2.8051 H   0  0
    2.4193    2.2214   -3.6212 H   0  0
    1.7054    1.2313   -4.9168 H   0  0
    1.4764    2.9965   -4.9168 H   0  0
  1  2  1  0
  3  2  1  0
  3  4  1  0
  5  4  1  0
  5  6  1  0
  7  5  1  0
  7  8  1  0
  7  9  1  0
  9 10  1  0
  9 11  1  0
 11  3  1  0
 11 12  1  0
  8 13  1  0
 13 15  1  0
 13 14  2  0
  6 16  1  0
 17 18  1  0
 19 20  2  0
 20 21  1  0
 17 21  2  0
 18 16  2  0
 16 19  1  0
 21 22  1  0
  1 23  1  0
  2 24  1  0
  2 25  1  0
  3 26  1  0
  5 27  1  0
  7 28  1  0
  8 29  1  0
  9 30  1  0
 10 31  1  0
 11 32  1  0
 12 33  1  0
 15 34  1  0
 15 35  1  0
 15 36  1  0
 17 37  1  0
 18 38  1  0
 19 39  1  0
 20 40  1  0
 22 41  1  0
 22 42  1  0
 22 43  1  0
M  END
> <Name>
RMM2007 - Intermediário - (6)

$$$$
RMM2007 - Intermediário - (7)
  SciTegic12132405553D

 46 47  0  0  0  0            999 V2000
   -5.5076    3.5222   -2.4312 O   0  0
   -6.8902    3.6680   -2.1208 C   0  0
   -7.3070    2.6094   -1.0725 C   0  0  1  0  0  0
   -6.4757    2.8031    0.0852 O   0  0
   -6.6228    1.8231    1.1413 C   0  0  2  0  0  0
   -4.4163    2.2572    1.8345 C   0  0
   -8.0870    1.8254    1.6729 C   0  0  2  0  0  0
   -8.2748    0.7307    2.5835 N   0  0
   -9.0997    1.7079    0.4926 C   0  0  1  0  0  0
  -10.4295    1.9276    0.9643 O   0  0
   -8.7950    2.7254   -0.6406 C   0  0  2  0  0  0
   -9.6684    2.5060   -1.7491 O   0  0
   -9.0513    0.7298    3.7018 C   0  0
   -9.6834    1.7498    4.0638 O   0  0
   -9.1890   -0.5002    4.5004 C   0  0
   -2.5855    3.5924    0.9244 C   0  0
   -3.9084    3.4932    1.3894 C   0  0
   -3.5695    1.1355    1.8639 C   0  0
   -2.2434    1.2373    1.4082 C   0  0
   -1.7316    2.4613    0.9066 C   0  0
   -0.4099    2.5451    0.3925 C   0  0
    0.3823    1.4329    0.3554 O   0  0
    0.0509    3.6310   -0.0364 O   0  0
    1.7103    1.3546   -0.1657 C   0  0
   -5.7260    2.1520    2.2287 O   0  0
   -5.0008    3.4688   -1.6176 H   0  0
   -6.9786    4.6526   -1.6616 H   0  0
   -7.4170    3.4506   -3.0499 H   0  0
   -7.1315    1.6091   -1.4684 H   0  0
   -6.3149    0.8624    0.7288 H   0  0
   -8.2814    2.7206    2.2635 H   0  0
   -7.8026   -0.1464    2.4170 H   0  0
   -9.0903    0.6900    0.1029 H   0  0
  -10.4325    1.9281    1.9243 H   0  0
   -9.0286    3.7449   -0.3336 H   0  0
   -9.7780    1.5625   -1.8883 H   0  0
   -9.1610   -0.2500    5.5609 H   0  0
  -10.1384   -0.9815    4.2656 H   0  0
   -8.3695   -1.1795    4.2656 H   0  0
   -2.2178    4.5568    0.5737 H   0  0
   -4.5434    4.3790    1.4050 H   0  0
   -3.9424    0.1834    2.2414 H   0  0
   -1.6036    0.3555    1.4443 H   0  0
    2.4222    1.3127    0.6587 H   0  0
    1.8086    0.4573   -0.7766 H   0  0
    1.9133    2.2342   -0.7766 H   0  0
  1  2  1  0
  3  2  1  0
  3  4  1  0
  5  4  1  0
  7  5  1  0
  7  8  1  0
  7  9  1  0
  9 10  1  0
  9 11  1  0
 11  3  1  0
 11 12  1  0
  8 13  1  0
 13 15  1  0
 13 14  2  0
 16 17  1  0
 18 19  2  0
 19 20  1  0
 16 20  2  0
 17  6  2  0
  6 18  1  0
 20 21  1  0
 21 22  1  0
 22 24  1  0
 21 23  2  0
  5 25  1  0
 25  6  1  0
  1 26  1  0
  2 27  1  0
  2 28  1  0
  3 29  1  0
  5 30  1  0
  7 31  1  0
  8 32  1  0
  9 33  1  0
 10 34  1  0
 11 35  1  0
 12 36  1  0
 15 37  1  0
 15 38  1  0
 15 39  1  0
 16 40  1  0
 17 41  1  0
 18 42  1  0
 19 43  1  0
 24 44  1  0
 24 45  1  0
 24 46  1  0
M  END
> <Name>
RMM2007 - Intermediário - (7)

$$$$
RMM2007 - Intermediário - (18)
  SciTegic12132405553D

 43 44  0  0  0  0            999 V2000
   -2.8973    2.7831   -6.9032 O   0  0
   -4.1962    3.1626   -6.4620 C   0  0
   -4.5961    2.2830   -5.2581 C   0  0  1  0  0  0
   -3.6473    2.5353   -4.1966 O   0  0
   -3.8065    1.7086   -3.0195 C   0  0  2  0  0  0
   -3.4541    0.3291   -3.2914 O   0  0
   -5.2396    1.8388   -2.4199 C   0  0  2  0  0  0
   -5.4388    0.8851   -1.3639 N   0  0
   -6.3288    1.6655   -3.5157 C   0  0  1  0  0  0
   -7.6118    1.9869   -2.9808 O   0  0
   -6.0328    2.5710   -4.7421 C   0  0  2  0  0  0
   -7.0047    2.3461   -5.7618 O   0  0
   -6.1129    1.1108   -0.2001 C   0  0
   -6.6254    2.2246    0.0631 O   0  0
   -6.2896    0.0260    0.7793 C   0  0
   -2.1492    0.1583   -3.6894 C   0  0
    0.2481    0.1637   -3.2036 C   0  0
   -1.0845    0.2969   -2.7735 C   0  0
   -1.8637   -0.1707   -5.0304 C   0  0
   -0.5299   -0.3125   -5.4587 C   0  0
    0.5417   -0.1388   -4.5535 C   0  0
    1.9371   -0.2743   -5.0329 C   0  0
   -2.3360    2.6191   -6.1419 H   0  0
   -4.0961    4.1910   -6.1147 H   0  0
   -4.8643    2.9300   -7.2912 H   0  0
   -4.5308    1.2308   -5.5350 H   0  0
   -3.0471    2.0569   -2.3194 H   0  0
   -5.3508    2.8053   -1.9285 H   0  0
   -5.0630   -0.0484   -1.4491 H   0  0
   -6.4051    0.6208   -3.8173 H   0  0
   -7.5704    1.9765   -2.0217 H   0  0
   -6.1587    3.6288   -4.5113 H   0  0
   -7.1243    1.4019   -5.8873 H   0  0
   -6.2233    0.4331    1.7883 H   0  0
   -7.2666   -0.4360    0.6374 H   0  0
   -5.5098   -0.7222    0.6374 H   0  0
    1.0583    0.2955   -2.4864 H   0  0
   -1.2932    0.5088   -1.7248 H   0  0
   -2.6784   -0.3161   -5.7398 H   0  0
   -0.3251   -0.5589   -6.5006 H   0  0
    2.6103   -0.3396   -4.1781 H   0  0
    2.0278   -1.1772   -5.6366 H   0  0
    2.1999    0.5944   -5.6366 H   0  0
  1  2  1  0
  3  2  1  0
  3  4  1  0
  5  4  1  0
  5  6  1  0
  5  7  1  0
  7  8  1  0
  7  9  1  0
  9 10  1  0
  9 11  1  0
 11  3  1  0
 11 12  1  0
  8 13  1  0
 13 15  1  0
 13 14  2  0
  6 16  1  0
 17 18  1  0
 19 20  2  0
 20 21  1  0
 17 21  2  0
 18 16  2  0
 16 19  1  0
 21 22  1  0
  1 23  1  0
  2 24  1  0
  2 25  1  0
  3 26  1  0
  5 27  1  0
  7 28  1  0
  8 29  1  0
  9 30  1  0
 10 31  1  0
 11 32  1  0
 12 33  1  0
 15 34  1  0
 15 35  1  0
 15 36  1  0
 17 37  1  0
 18 38  1  0
 19 39  1  0
 20 40  1  0
 22 41  1  0
 22 42  1  0
 22 43  1  0
M  END
> <Name>
RMM2007 - Intermediário - (18)

$$$$
RMM2007 - Intermediário - (30)
  SciTegic12132405553D

 57 59  0  0  0  0            999 V2000
   -2.5662    2.9170   -1.1012 N   0  0
   -3.7078    2.6962   -0.3376 C   0  0
   -4.0180    1.1692   -0.2682 C   0  0  1  0  0  0
   -2.8490    0.3957    0.0953 O   0  0
   -2.4774    0.4218    1.4961 C   0  0  2  0  0  0
   -1.2560   -0.3201    1.7184 O   0  0
   -3.6202   -0.1850    2.3524 C   0  0  2  0  0  0
   -3.7971   -1.5772    2.0407 N   0  0
   -4.9268    0.6387    2.1100 C   0  0  1  0  0  0
   -4.8328    1.9623    2.6728 O   0  0
   -5.2631    0.7471    0.5898 C   0  0  1  0  0  0
   -6.3778    1.5709    0.4132 N   0  0
   -4.3692   -2.5020    2.8636 C   0  0
   -4.7986   -2.1939    4.0011 O   0  0
   -4.4915   -3.9045    2.4338 C   0  0
   -0.1801    0.2347    1.0732 C   0  0
    1.3213    0.2805   -0.8488 C   0  0
    0.2472   -0.3055   -0.1544 C   0  0
    0.4987    1.3436    1.6196 C   0  0
    1.5658    1.9357    0.9191 C   0  0
    1.9840    1.4150   -0.3274 C   0  0
    3.0924    2.0333   -1.0926 C   0  0
   -4.7074    2.2579    3.9975 C   0  0
   -3.5739    2.6399    4.3681 O   0  0
   -5.8070    2.2065    4.8948 C   0  0
   -5.6117    2.3108    6.2948 C   0  0
   -6.6962    2.2380    7.1868 C   0  0
   -8.0000    2.0585    6.6958 C   0  0
   -8.2186    1.9640    5.3107 C   0  0
   -7.1328    2.0419    4.4182 C   0  0
   -2.0428    3.9503   -1.2174 N   0  0
   -1.5106    4.9757   -1.3346 N   0  0
   -7.0201    1.6179   -0.5573 N   0  0
   -7.6634    1.6661   -1.5230 N   0  0
   -3.4420    3.0427    0.6611 H   0  0
   -4.5078    3.1887   -0.8903 H   0  0
   -4.2268    0.8737   -1.2964 H   0  0
   -2.2559    1.4608    1.7397 H   0  0
   -3.3644   -0.2137    3.4116 H   0  0
   -3.4874   -1.9433    1.1517 H   0  0
   -5.7441    0.1714    2.6592 H   0  0
   -5.6478   -0.1909    0.1894 H   0  0
   -4.5477   -4.5496    3.3106 H   0  0
   -5.3952   -4.0239    1.8363 H   0  0
   -3.6220   -4.1784    1.8363 H   0  0
    1.6425   -0.1480   -1.7982 H   0  0
   -0.2549   -1.1798   -0.5686 H   0  0
    0.1972    1.7447    2.5872 H   0  0
    2.0714    2.8026    1.3445 H   0  0
    3.8275    2.4434   -0.4001 H   0  0
    3.5660    1.2784   -1.7203 H   0  0
    2.6988    2.8329   -1.7203 H   0  0
   -4.6069    2.4499    6.6936 H   0  0
   -6.5261    2.3208    8.2603 H   0  0
   -8.8397    1.9928    7.3876 H   0  0
   -9.2306    1.8302    4.9286 H   0  0
   -7.3205    1.9741    3.3466 H   0  0
  1  2  1  0
  3  2  1  0
  3  4  1  0
  5  4  1  0
  5  6  1  0
  7  5  1  0
  7  8  1  0
  9  7  1  0
  9 10  1  0
 11  9  1  0
 11  3  1  0
 11 12  1  0
  8 13  1  0
 13 15  1  0
 13 14  2  0
  6 16  1  0
 17 18  1  0
 19 20  2  0
 20 21  1  0
 17 21  2  0
 18 16  2  0
 16 19  1  0
 21 22  1  0
 10 23  1  0
 23 25  1  0
 26 27  2  0
 27 28  1  0
 28 29  2  0
 29 30  1  0
 25 26  1  0
 25 30  2  0
 23 24  2  0
 31 32  2  0
 33 34  2  0
  1 31  2  0
 12 33  2  0
  2 35  1  0
  2 36  1  0
  3 37  1  0
  5 38  1  0
  7 39  1  0
  8 40  1  0
  9 41  1  0
 11 42  1  0
 15 43  1  0
 15 44  1  0
 15 45  1  0
 17 46  1  0
 18 47  1  0
 19 48  1  0
 20 49  1  0
 22 50  1  0
 22 51  1  0
 22 52  1  0
 26 53  1  0
 27 54  1  0
 28 55  1  0
 29 56  1  0
 30 57  1  0
M  END
> <Name>
RMM2007 - Intermediário - (30)

$$$$
RMM2007 - Produto - (8)
  SciTegic12132405553D

 59 61  0  0  0  0            999 V2000
    5.0662   -1.3783   -1.1424 O   0  0
    3.7681   -1.2965   -0.5306 C   0  0
    3.5504   -2.5127    0.4007 C   0  0  1  0  0  0
    4.5201   -2.4464    1.4656 O   0  0
    4.5034   -3.5611    2.3922 C   0  0  1  0  0  0
    5.5172   -3.3640    3.4051 O   0  0
    3.1116   -3.6614    3.0932 C   0  0  2  0  0  0
    3.0649   -4.8337    3.9258 N   0  0
    1.9790   -3.7013    2.0250 C   0  0  1  0  0  0
    0.6951   -3.6420    2.6449 O   0  0
    2.1156   -2.5400    1.0020 C   0  0  2  0  0  0
    1.1437   -2.6904   -0.0310 O   0  0
    2.3567   -4.9702    5.0828 C   0  0
    1.6395   -4.0459    5.5348 O   0  0
    2.4214   -6.2292    5.8430 C   0  0
    6.7907   -3.2470    2.9099 C   0  0
    8.6130   -1.8597    2.0544 C   0  0
    7.3110   -1.9806    2.5767 C   0  0
    7.5971   -4.3890    2.7471 C   0  0
    8.8979   -4.2713    2.2216 C   0  0
    9.4151   -3.0067    1.8536 C   0  0
   10.7640   -2.8677    1.2620 C   0  0
    5.3170   -0.1920   -2.3668 S   0  0
    4.1470   -0.4490   -3.6701 C   0  0
    2.1840   -0.9778   -5.6549 C   0  0
    3.4298   -1.6477   -5.6753 C   0  0
    4.4022   -1.3872   -4.6909 C   0  0
    2.9211    0.2464   -3.6655 C   0  0
    1.9456   -0.0206   -4.6429 C   0  0
    1.1315   -1.2589   -6.6590 C   0  0
    6.8174   -0.3819   -2.8999 O   0  0
    5.1713    1.2639   -1.7117 O   0  0
    3.7956   -0.3997    0.0884 H   0  0
    3.0555   -1.3701   -1.3521 H   0  0
    3.7332   -3.4400   -0.1423 H   0  0
    4.7677   -4.4477    1.8160 H   0  0
    2.9540   -2.8366    3.7881 H   0  0
    3.5904   -5.6568    3.6681 H   0  0
    1.9902   -4.6653    1.5164 H   0  0
    0.8000   -3.6468    3.5992 H   0  0
    1.8717   -1.5807    1.4584 H   0  0
    0.9911   -3.6242   -0.1932 H   0  0
    2.4101   -6.0099    6.9107 H   0  0
    1.5621   -6.8505    5.5906 H   0  0
    3.3397   -6.7593    5.5906 H   0  0
    9.0021   -0.8728    1.8043 H   0  0
    6.7023   -1.0885    2.7238 H   0  0
    7.2125   -5.3691    3.0293 H   0  0
    9.5090   -5.1656    2.0987 H   0  0
   11.5040   -2.7915    2.0586 H   0  0
   10.9821   -3.7399    0.6457 H   0  0
   10.7996   -1.9694    0.6457 H   0  0
    3.6431   -2.3740   -6.4595 H   0  0
    5.3562   -1.9137   -4.7192 H   0  0
    2.7257    0.9970   -2.8997 H   0  0
    0.9984    0.5179   -4.6158 H   0  0
    0.2005   -1.5076   -6.1496 H   0  0
    0.9801   -0.3782   -7.2831 H   0  0
    1.4395   -2.0978   -7.2831 H   0  0
  1  2  1  0
  3  2  1  0
  3  4  1  0
  5  4  1  0
  5  6  1  0
  7  5  1  0
  7  8  1  0
  7  9  1  0
  9 10  1  0
  9 11  1  0
 11  3  1  0
 11 12  1  0
  8 13  1  0
 13 15  1  0
 13 14  2  0
  6 16  1  0
 17 18  1  0
 19 20  2  0
 20 21  1  0
 17 21  2  0
 18 16  2  0
 16 19  1  0
 21 22  1  0
  1 23  1  0
 23 24  1  0
 25 26  1  0
 26 27  2  0
 28 29  1  0
 25 29  2  0
 27 24  1  0
 24 28  2  0
 25 30  1  0
 23 32  2  0
 23 31  2  0
  2 33  1  0
  2 34  1  0
  3 35  1  0
  5 36  1  0
  7 37  1  0
  8 38  1  0
  9 39  1  0
 10 40  1  0
 11 41  1  0
 12 42  1  0
 15 43  1  0
 15 44  1  0
 15 45  1  0
 17 46  1  0
 18 47  1  0
 19 48  1  0
 20 49  1  0
 22 50  1  0
 22 51  1  0
 22 52  1  0
 26 53  1  0
 27 54  1  0
 28 55  1  0
 29 56  1  0
 30 57  1  0
 30 58  1  0
 30 59  1  0
M  END
> <Name>
RMM2007 - Produto - (8)

$$$$
RMM2007 - Produto - (9)
  SciTegic12132405553D

 62 64  0  0  0  0            999 V2000
   -5.6310    4.9429   -0.4980 O   0  0
   -6.6877    5.0004    0.4766 C   0  0
   -6.5132    3.8720    1.5245 C   0  0  1  0  0  0
   -5.2968    4.1302    2.2529 O   0  0
   -4.9352    3.1458    3.2526 C   0  0  1  0  0  0
   -3.7261    3.5585    3.9288 O   0  0
   -6.0586    3.0195    4.3217 C   0  0  2  0  0  0
   -5.7351    1.9511    5.2232 N   0  0
   -7.4323    2.7622    3.6397 C   0  0  1  0  0  0
   -8.4781    2.8073    4.6118 O   0  0
   -7.7100    3.8042    2.5209 C   0  0  2  0  0  0
   -8.9211    3.4674    1.8395 O   0  0
   -6.0585    1.8921    6.5443 C   0  0
   -6.7067    2.8063    7.1098 O   0  0
   -5.6580    0.7208    7.3386 C   0  0
   -2.6695    3.7596    3.0815 C   0  0
   -0.7104    2.9140    1.8997 C   0  0
   -1.7759    2.7116    2.7966 C   0  0
   -2.4633    5.0237    2.4960 C   0  0
   -1.4040    5.2232    1.5930 C   0  0
   -0.5168    4.1672    1.2631 C   0  0
    0.5273    4.3538    0.3147 C   0  0
   -5.8780    6.0460   -1.8006 S   0  0
   -7.3310    5.5621   -2.6893 C   0  0
   -9.6977    4.6274   -3.9502 C   0  0
   -8.4357    4.0912   -4.2976 C   0  0
   -7.2619    4.5580   -3.6767 C   0  0
   -8.5818    6.1280   -2.3671 C   0  0
   -9.7549    5.6575   -2.9842 C   0  0
  -10.9497    4.1328   -4.5710 C   0  0
   -4.5810    5.9705   -2.7403 O   0  0
   -5.9995    7.5303   -1.2061 O   0  0
    1.3378    3.3099   -0.0393 O   0  0
    0.7254    5.4738   -0.2154 O   0  0
    2.3842    3.3438   -1.0145 C   0  0
   -6.5564    5.9546    0.9869 H   0  0
   -7.6034    4.8016   -0.0803 H   0  0
   -6.3999    2.9076    1.0294 H   0  0
   -4.7345    2.2217    2.7104 H   0  0
   -6.1128    3.9079    4.9509 H   0  0
   -5.2207    1.1485    4.8897 H   0  0
   -7.4703    1.7502    3.2366 H   0  0
   -8.0969    2.7909    5.4928 H   0  0
   -7.9080    4.7901    2.9413 H   0  0
   -9.6077    3.2765    2.4827 H   0  0
   -5.7386    0.9565    8.3997 H   0  0
   -6.3114   -0.1191    7.1023 H   0  0
   -4.6271    0.4568    7.1023 H   0  0
   -0.0266    2.0901    1.6956 H   0  0
   -1.9096    1.7400    3.2722 H   0  0
   -3.1271    5.8523    2.7431 H   0  0
   -1.2691    6.2071    1.1439 H   0  0
   -8.3670    3.3085   -5.0532 H   0  0
   -6.2961    4.1405   -3.9615 H   0  0
   -8.6423    6.9344   -1.6363 H   0  0
  -10.7156    6.0944   -2.7117 H   0  0
  -11.6568    3.8534   -3.7899 H   0  0
  -11.3835    4.9183   -5.1897 H   0  0
  -10.7295    3.2629   -5.1897 H   0  0
    3.3500    3.3751   -0.5102 H   0  0
    2.3287    2.4515   -1.6382 H   0  0
    2.2711    4.2306   -1.6382 H   0  0
  1  2  1  0
  3  2  1  0
  3  4  1  0
  5  4  1  0
  5  6  1  0
  7  5  1  0
  7  8  1  0
  7  9  1  0
  9 10  1  0
  9 11  1  0
 11  3  1  0
 11 12  1  0
  8 13  1  0
 13 15  1  0
 13 14  2  0
  6 16  1  0
 17 18  1  0
 19 20  2  0
 20 21  1  0
 17 21  2  0
 18 16  2  0
 16 19  1  0
 21 22  1  0
  1 23  1  0
 23 24  1  0
 25 26  1  0
 26 27  2  0
 28 29  1  0
 25 29  2  0
 27 24  1  0
 24 28  2  0
 25 30  1  0
 23 32  2  0
 23 31  2  0
 22 33  1  0
 33 35  1  0
 22 34  2  0
  2 36  1  0
  2 37  1  0
  3 38  1  0
  5 39  1  0
  7 40  1  0
  8 41  1  0
  9 42  1  0
 10 43  1  0
 11 44  1  0
 12 45  1  0
 15 46  1  0
 15 47  1  0
 15 48  1  0
 17 49  1  0
 18 50  1  0
 19 51  1  0
 20 52  1  0
 26 53  1  0
 27 54  1  0
 28 55  1  0
 29 56  1  0
 30 57  1  0
 30 58  1  0
 30 59  1  0
 35 60  1  0
 35 61  1  0
 35 62  1  0
M  END
> <Name>
RMM2007 - Produto - (9)

$$$$
RMM2007 - Produto - (10)
  SciTegic12132405553D

 44 45  0  0  0  0            999 V2000
   -5.1338    2.0056   -3.7450 N   0  0
   -6.1741    2.1711   -2.8338 C   0  0
   -6.0620    1.1225   -1.6968 C   0  0  1  0  0  0
   -4.8018    1.3380   -1.0285 O   0  0
   -4.4635    0.3560   -0.0191 C   0  0  1  0  0  0
   -3.1782    0.6598    0.5706 O   0  0
   -5.5366    0.3588    1.1084 C   0  0  2  0  0  0
   -5.2465   -0.7138    2.0130 N   0  0
   -6.9582    0.1894    0.5003 C   0  0  1  0  0  0
   -7.9474    0.3404    1.5174 O   0  0
   -7.2122    1.2047   -0.6493 C   0  0  2  0  0  0
   -8.4717    0.9424   -1.2612 O   0  0
   -5.4641   -0.7194    3.3550 C   0  0
   -5.9774    0.2617    3.9417 O   0  0
   -5.1064   -1.9006    4.1534 C   0  0
   -2.1629    0.7284   -0.3461 C   0  0
   -0.8567    2.0427   -1.9324 C   0  0
   -1.8731    1.9594   -0.9661 C   0  0
   -1.4013   -0.4118   -0.6701 C   0  0
   -0.3817   -0.3257   -1.6373 C   0  0
   -0.1120    0.8976   -2.2947 C   0  0
    0.9313    1.0022   -3.3404 C   0  0
   -4.9775    2.6739   -4.6860 N   0  0
   -4.8152    3.3363   -5.6260 N   0  0
   -6.0132    3.1612   -2.4072 H   0  0
   -7.0785    1.9645   -3.4059 H   0  0
   -6.0603    0.1211   -2.1273 H   0  0
   -4.3704   -0.5960   -0.5418 H   0  0
   -5.4941    1.2648    1.7129 H   0  0
   -4.8395   -1.5692    1.6626 H   0  0
   -7.0942   -0.8294    0.1376 H   0  0
   -8.2360   -0.5257    1.8142 H   0  0
   -7.3203    2.2203   -0.2685 H   0  0
   -9.1352    0.8043   -0.5813 H   0  0
   -5.1797   -1.6584    5.2136 H   0  0
   -5.7888   -2.7177    3.9193 H   0  0
   -4.0853   -2.2017    3.9193 H   0  0
   -0.6444    3.0021   -2.4042 H   0  0
   -2.4380    2.8518   -0.6970 H   0  0
   -1.6010   -1.3607   -0.1724 H   0  0
    0.2035   -1.2129   -1.8791 H   0  0
    1.9093    1.1002   -2.8693 H   0  0
    0.9150    0.1061   -3.9608 H   0  0
    0.7374    1.8772   -3.9608 H   0  0
  1  2  1  0
  3  2  1  0
  3  4  1  0
  5  4  1  0
  5  6  1  0
  7  5  1  0
  7  8  1  0
  7  9  1  0
  9 10  1  0
  9 11  1  0
 11  3  1  0
 11 12  1  0
  8 13  1  0
 13 15  1  0
 13 14  2  0
  6 16  1  0
 17 18  1  0
 19 20  2  0
 20 21  1  0
 17 21  2  0
 18 16  2  0
 16 19  1  0
 21 22  1  0
  1 23  2  0
 23 24  2  0
  2 25  1  0
  2 26  1  0
  3 27  1  0
  5 28  1  0
  7 29  1  0
  8 30  1  0
  9 31  1  0
 10 32  1  0
 11 33  1  0
 12 34  1  0
 15 35  1  0
 15 36  1  0
 15 37  1  0
 17 38  1  0
 18 39  1  0
 19 40  1  0
 20 41  1  0
 22 42  1  0
 22 43  1  0
 22 44  1  0
M  END
> <Name>
RMM2007 - Produto - (10)

$$$$
RMM2007 - Produto - (11)
  SciTegic12132405553D

 47 48  0  0  0  0            999 V2000
   -6.0795    3.9240   -1.8725 N   0  0
   -7.2176    4.2561   -1.1465 C   0  0
   -7.4786    3.1937   -0.0456 C   0  0  1  0  0  0
   -6.3408    3.1802    0.8400 O   0  0
   -6.3520    2.1533    1.8620 C   0  0  1  0  0  0
   -5.1472    2.2419    2.6581 O   0  0
   -7.5882    2.3429    2.7902 C   0  0  2  0  0  0
   -7.6902    1.2342    3.6974 N   0  0
   -8.8908    2.4467    1.9394 C   0  0  1  0  0  0
   -9.9957    2.8015    2.7713 O   0  0
   -8.7564    3.4855    0.7912 C   0  0  2  0  0  0
   -9.9224    3.4543   -0.0336 O   0  0
   -8.1719    1.2753    4.9710 C   0  0
   -8.5573    2.3444    5.4992 O   0  0
   -8.2874    0.0344    5.7530 C   0  0
   -3.9972    2.1574    1.9155 C   0  0
   -2.2697    3.2350    0.5648 C   0  0
   -3.4219    3.3209    1.3657 C   0  0
   -3.3745    0.9135    1.6998 C   0  0
   -2.2154    0.8293    0.9065 C   0  0
   -1.6563    1.9844    0.3018 C   0  0
   -0.5199    1.8854   -0.5469 C   0  0
    0.0308    0.6639   -0.8155 O   0  0
   -0.0073    2.9058   -1.0677 O   0  0
    1.1424    0.4034   -1.6759 C   0  0
   -5.6757    4.5524   -2.7674 N   0  0
   -5.2714    5.1759   -3.6594 N   0  0
   -6.9707    5.2015   -0.6635 H   0  0
   -8.0304    4.2102   -1.8713 H   0  0
   -7.5676    2.2081   -0.5025 H   0  0
   -6.3371    1.1935    1.3456 H   0  0
   -7.4648    3.2177    3.4286 H   0  0
   -7.3870    0.3162    3.4050 H   0  0
   -9.1430    1.4671    1.5333 H   0  0
   -9.7412    2.7198    3.6934 H   0  0
   -8.7396    4.5053    1.1756 H   0  0
  -10.7060    3.4334    0.5207 H   0  0
   -8.2653    0.2719    6.8166 H   0  0
   -9.2274   -0.4615    5.5109 H   0  0
   -7.4551   -0.6264    5.5109 H   0  0
   -1.8476    4.1474    0.1434 H   0  0
   -3.8716    4.2943    1.5614 H   0  0
   -3.7915    0.0121    2.1487 H   0  0
   -1.7447   -0.1427    0.7586 H   0  0
    2.0271    0.1960   -1.0738 H   0  0
    0.9208   -0.4588   -2.3049 H   0  0
    1.3270    1.2742   -2.3049 H   0  0
  1  2  1  0
  3  2  1  0
  3  4  1  0
  5  4  1  0
  5  6  1  0
  7  5  1  0
  7  8  1  0
  7  9  1  0
  9 10  1  0
  9 11  1  0
 11  3  1  0
 11 12  1  0
  8 13  1  0
 13 15  1  0
 13 14  2  0
  6 16  1  0
 17 18  1  0
 19 20  2  0
 20 21  1  0
 17 21  2  0
 18 16  2  0
 16 19  1  0
 21 22  1  0
 22 23  1  0
 23 25  1  0
 22 24  2  0
 26 27  2  0
  1 26  2  0
  2 28  1  0
  2 29  1  0
  3 30  1  0
  5 31  1  0
  7 32  1  0
  8 33  1  0
  9 34  1  0
 10 35  1  0
 11 36  1  0
 12 37  1  0
 15 38  1  0
 15 39  1  0
 15 40  1  0
 17 41  1  0
 18 42  1  0
 19 43  1  0
 20 44  1  0
 25 45  1  0
 25 46  1  0
 25 47  1  0
M  END
> <Name>
RMM2007 - Produto - (11)

$$$$
RMM2007 - Produto - (12)
  SciTegic12132405553D

 44 45  0  0  0  0            999 V2000
   -0.7745    3.2881   -0.9558 N   0  0
   -2.0061    3.3884   -0.1620 C   0  0
   -2.0378    2.2892    0.9292 C   0  0  1  0  0  0
   -0.8695    2.4589    1.7610 O   0  0
   -0.6622    1.4115    2.7395 C   0  0  1  0  0  0
    0.5500    1.6533    3.4931 O   0  0
   -1.8662    1.3640    3.7288 C   0  0  2  0  0  0
   -1.7058    0.2387    4.6045 N   0  0
   -3.2093    1.2538    2.9426 C   0  0  1  0  0  0
   -4.3218    1.3586    3.8328 O   0  0
   -3.3115    2.3331    1.8243 C   0  0  2  0  0  0
   -4.4849    2.1200    1.0413 O   0  0
   -2.0888    0.1592    5.9083 C   0  0
   -2.6512    1.1140    6.4938 O   0  0
   -1.8415   -1.0755    6.6702 C   0  0
    1.6695    1.7721    2.7106 C   0  0
    3.1766    3.1757    1.3956 C   0  0
    2.0552    3.0405    2.2338 C   0  0
    2.4481    0.6444    2.3812 C   0  0
    3.5735    0.7789    1.5441 C   0  0
    3.9386    2.0441    1.0250 C   0  0
    5.0850    2.2086    0.1009 C   0  0
   -0.4219    2.3818   -1.2287 H   0  0
   -0.2800    4.1254   -1.2287 H   0  0
   -1.9509    4.3518    0.3447 H   0  0
   -2.8205    3.1839   -0.8570 H   0  0
   -1.9828    1.3095    0.4546 H   0  0
   -0.5148    0.4918    2.1733 H   0  0
   -1.8817    2.2328    4.3868 H   0  0
   -1.2682   -0.6037    4.2597 H   0  0
   -3.3081    0.2570    2.5128 H   0  0
   -4.0095    1.3292    4.7401 H   0  0
   -3.4624    3.3287    2.2415 H   0  0
   -5.2369    1.9835    1.6222 H   0  0
   -1.8849   -0.8587    7.7375 H   0  0
   -2.6008   -1.8159    6.4186 H   0  0
   -0.8555   -1.4663    6.4186 H   0  0
    3.4570    4.1638    1.0308 H   0  0
    1.4819    3.9237    2.5155 H   0  0
    2.1788   -0.3355    2.7754 H   0  0
    4.1658   -0.1020    1.2964 H   0  0
    6.0006    2.3400    0.6775 H   0  0
    5.1753    1.3225   -0.5274 H   0  0
    4.9224    3.0844   -0.5274 H   0  0
  1  2  1  0
  3  2  1  0
  3  4  1  0
  5  4  1  0
  5  6  1  0
  7  5  1  0
  7  8  1  0
  7  9  1  0
  9 10  1  0
  9 11  1  0
 11  3  1  0
 11 12  1  0
  8 13  1  0
 13 15  1  0
 13 14  2  0
  6 16  1  0
 17 18  1  0
 19 20  2  0
 20 21  1  0
 17 21  2  0
 18 16  2  0
 16 19  1  0
 21 22  1  0
  1 23  1  0
  1 24  1  0
  2 25  1  0
  2 26  1  0
  3 27  1  0
  5 28  1  0
  7 29  1  0
  8 30  1  0
  9 31  1  0
 10 32  1  0
 11 33  1  0
 12 34  1  0
 15 35  1  0
 15 36  1  0
 15 37  1  0
 17 38  1  0
 18 39  1  0
 19 40  1  0
 20 41  1  0
 22 42  1  0
 22 43  1  0
 22 44  1  0
M  END
> <Name>
RMM2007 - Produto - (12)

$$$$
RMM2007 - Produto - (13)
  SciTegic12132405553D

 47 48  0  0  0  0            999 V2000
   -7.1330    3.1521   -2.2190 N   0  0
   -8.2608    3.2117   -1.2806 C   0  0
   -8.0420    2.2502   -0.0858 C   0  0  1  0  0  0
   -6.8179    2.6415    0.5633 O   0  0
   -6.3693    1.7692    1.6283 C   0  0  1  0  0  0
   -5.1291    2.2766    2.1761 O   0  0
   -7.4362    1.7158    2.7627 C   0  0  2  0  0  0
   -7.0578    0.7269    3.7331 N   0  0
   -8.8450    1.3926    2.1782 C   0  0  1  0  0  0
   -9.8424    1.5462    3.1889 O   0  0
   -9.1929    2.2966    0.9602 C   0  0  2  0  0  0
  -10.4272    1.8806    0.3734 O   0  0
   -7.2972    0.7765    5.0728 C   0  0
   -7.8872    1.7479    5.6022 O   0  0
   -6.8831   -0.3418    5.9367 C   0  0
   -4.1475    2.4438    1.2314 C   0  0
   -3.0730    3.8164   -0.4802 C   0  0
   -4.0409    3.6602    0.5272 C   0  0
   -3.2395    1.4055    0.9518 C   0  0
   -2.2641    1.5673   -0.0495 C   0  0
   -2.1778    2.7658   -0.8027 C   0  0
   -1.2335    2.9014   -1.8582 C   0  0
   -0.4049    1.8619   -2.1797 O   0  0
   -1.1449    3.9664   -2.5165 O   0  0
    0.5578    1.8290   -3.2370 C   0  0
   -6.7913    2.2581   -2.5417 H   0  0
   -6.6990    4.0050   -2.5417 H   0  0
   -8.2573    4.2277   -0.8860 H   0  0
   -9.1230    2.8468   -1.8388 H   0  0
   -7.9358    1.2287   -0.4509 H   0  0
   -6.1678    0.7980    1.1763 H   0  0
   -7.4635    2.6523    3.3198 H   0  0
   -6.5640   -0.1033    3.4379 H   0  0
   -8.8931    0.3422    1.8911 H   0  0
  -10.1343    0.6808    3.4847 H   0  0
   -9.3916    3.3221    1.2715 H   0  0
  -11.0560    1.6687    1.0671 H   0  0
   -6.9903   -0.0524    6.9821 H   0  0
   -7.5108   -1.2095    5.7338 H   0  0
   -5.8416   -0.5914    5.7338 H   0  0
   -3.0160    4.7630   -1.0175 H   0  0
   -4.7119    4.4861    0.7634 H   0  0
   -3.2919    0.4725    1.5130 H   0  0
   -1.5659    0.7532   -0.2444 H   0  0
    0.7864    0.7932   -3.4881 H   0  0
    0.1522    2.3343   -4.1135 H   0  0
    1.4684    2.3343   -2.9152 H   0  0
  1  2  1  0
  3  2  1  0
  3  4  1  0
  5  4  1  0
  5  6  1  0
  7  5  1  0
  7  8  1  0
  7  9  1  0
  9 10  1  0
  9 11  1  0
 11  3  1  0
 11 12  1  0
  8 13  1  0
 13 15  1  0
 13 14  2  0
  6 16  1  0
 17 18  1  0
 19 20  2  0
 20 21  1  0
 17 21  2  0
 18 16  2  0
 16 19  1  0
 21 22  1  0
 22 23  1  0
 23 25  1  0
 22 24  2  0
  1 26  1  0
  1 27  1  0
  2 28  1  0
  2 29  1  0
  3 30  1  0
  5 31  1  0
  7 32  1  0
  8 33  1  0
  9 34  1  0
 10 35  1  0
 11 36  1  0
 12 37  1  0
 15 38  1  0
 15 39  1  0
 15 40  1  0
 17 41  1  0
 18 42  1  0
 19 43  1  0
 20 44  1  0
 25 45  1  0
 25 46  1  0
 25 47  1  0
M  END
> <Name>
RMM2007 - Produto - (13)

$$$$
RMM2007 - Produto - (14)
  SciTegic12132405553D

 49 50  0  0  0  0            999 V2000
   -5.4310    4.3369   -1.6292 N   0  0
   -6.8489    4.2676   -1.4452 C   0  0
   -7.2587    3.2228   -0.3680 C   0  0  1  0  0  0
   -6.3847    3.3490    0.7747 O   0  0
   -6.5703    2.3383    1.7941 C   0  0  1  0  0  0
   -5.6031    2.5288    2.8495 O   0  0
   -7.9982    2.4700    2.3924 C   0  0  2  0  0  0
   -8.2044    1.4353    3.3683 N   0  0
   -9.0583    2.3863    1.2524 C   0  0  1  0  0  0
  -10.3615    2.6499    1.7731 O   0  0
   -8.7379    3.3829    0.1008 C   0  0  2  0  0  0
   -9.6334    3.1886   -0.9921 O   0  0
   -8.9217    1.5477    4.5194 C   0  0
   -9.5129    2.6091    4.8266 O   0  0
   -9.0329    0.4045    5.4400 C   0  0
   -4.3078    2.3717    2.4350 C   0  0
   -2.2603    3.3099    1.5009 C   0  0
   -3.5817    3.4752    1.9494 C   0  0
   -3.6855    1.1131    2.5093 C   0  0
   -2.3604    0.9509    2.0645 C   0  0
   -1.6266    2.0415    1.5330 C   0  0
   -0.3037    1.8649    1.0401 C   0  0
   -4.8066    4.9489   -2.6722 C   0  0
   -5.4455    5.4290   -3.6380 O   0  0
   -3.3394    5.0777   -2.6790 C   0  0
   -4.8094    3.9117   -0.9562 H   0  0
   -7.1253    5.2535   -1.0713 H   0  0
   -7.2332    3.9211   -2.4046 H   0  0
   -7.1116    2.2205   -0.7703 H   0  0
   -6.3706    1.3708    1.3336 H   0  0
   -8.1176    3.3949    2.9567 H   0  0
   -7.7972    0.5216    3.2286 H   0  0
   -9.1170    1.3685    0.8667 H   0  0
  -10.3300    2.6435    2.7326 H   0  0
   -8.9376    4.4082    0.4122 H   0  0
   -9.7562    2.2484   -1.1420 H   0  0
   -8.9981    0.7620    6.4691 H   0  0
   -9.9772   -0.1114    5.2662 H   0  0
   -8.2056   -0.2837    5.2662 H   0  0
   -1.7195    4.1775    1.1230 H   0  0
   -4.0446    4.4616    1.9206 H   0  0
   -4.2318    0.2606    2.9129 H   0  0
   -1.8960   -0.0329    2.1325 H   0  0
    0.3870    1.7726    1.8782 H   0  0
   -0.2601    0.9612    0.4322 H   0  0
   -0.0246    2.7255    0.4322 H   0  0
   -2.9727    5.1099   -1.6531 H   0  0
   -2.9020    4.2227   -3.1945 H   0  0
   -3.0577    5.9959   -3.1945 H   0  0
  1  2  1  0
  3  2  1  0
  3  4  1  0
  5  4  1  0
  5  6  1  0
  7  5  1  0
  7  8  1  0
  7  9  1  0
  9 10  1  0
  9 11  1  0
 11  3  1  0
 11 12  1  0
  8 13  1  0
 13 15  1  0
 13 14  2  0
  6 16  1  0
 17 18  1  0
 19 20  2  0
 20 21  1  0
 17 21  2  0
 18 16  2  0
 16 19  1  0
 21 22  1  0
  1 23  1  0
 23 25  1  0
 23 24  2  0
  1 26  1  0
  2 27  1  0
  2 28  1  0
  3 29  1  0
  5 30  1  0
  7 31  1  0
  8 32  1  0
  9 33  1  0
 10 34  1  0
 11 35  1  0
 12 36  1  0
 15 37  1  0
 15 38  1  0
 15 39  1  0
 17 40  1  0
 18 41  1  0
 19 42  1  0
 20 43  1  0
 22 44  1  0
 22 45  1  0
 22 46  1  0
 25 47  1  0
 25 48  1  0
 25 49  1  0
M  END
> <Name>
RMM2007 - Produto - (14)

$$$$
RMM2007 - Produto - (15)
  SciTegic12132405553D

 52 53  0  0  0  0            999 V2000
   -5.4310    4.3369   -1.6292 N   0  0
   -6.8489    4.2676   -1.4452 C   0  0
   -7.2587    3.2228   -0.3680 C   0  0  1  0  0  0
   -6.3847    3.3490    0.7747 O   0  0
   -6.5703    2.3383    1.7941 C   0  0  1  0  0  0
   -5.6031    2.5288    2.8495 O   0  0
   -7.9982    2.4700    2.3924 C   0  0  2  0  0  0
   -8.2044    1.4353    3.3683 N   0  0
   -9.0583    2.3863    1.2524 C   0  0  1  0  0  0
  -10.3615    2.6499    1.7731 O   0  0
   -8.7379    3.3829    0.1008 C   0  0  2  0  0  0
   -9.6334    3.1886   -0.9921 O   0  0
   -8.9217    1.5477    4.5194 C   0  0
   -9.5129    2.6091    4.8266 O   0  0
   -9.0329    0.4045    5.4400 C   0  0
   -4.3078    2.3717    2.4350 C   0  0
   -2.2603    3.3099    1.5009 C   0  0
   -3.5817    3.4752    1.9494 C   0  0
   -3.6855    1.1131    2.5093 C   0  0
   -2.3604    0.9509    2.0645 C   0  0
   -1.6266    2.0415    1.5330 C   0  0
   -0.3037    1.8649    1.0401 C   0  0
    0.2795    0.6251    1.0306 O   0  0
    0.3468    2.8444    0.5991 O   0  0
    1.5748    0.3014    0.5133 C   0  0
   -4.8066    4.9489   -2.6722 C   0  0
   -5.4455    5.4290   -3.6380 O   0  0
   -3.3394    5.0777   -2.6790 C   0  0
   -4.8094    3.9117   -0.9562 H   0  0
   -7.1253    5.2535   -1.0713 H   0  0
   -7.2332    3.9211   -2.4046 H   0  0
   -7.1116    2.2205   -0.7703 H   0  0
   -6.3706    1.3708    1.3336 H   0  0
   -8.1176    3.3949    2.9567 H   0  0
   -7.7972    0.5216    3.2286 H   0  0
   -9.1170    1.3685    0.8667 H   0  0
  -10.3300    2.6435    2.7326 H   0  0
   -8.9376    4.4082    0.4122 H   0  0
   -9.7562    2.2484   -1.1420 H   0  0
   -8.9981    0.7620    6.4691 H   0  0
   -9.9772   -0.1114    5.2662 H   0  0
   -8.2056   -0.2837    5.2662 H   0  0
   -1.7195    4.1775    1.1230 H   0  0
   -4.0446    4.4616    1.9206 H   0  0
   -4.2318    0.2606    2.9129 H   0  0
   -1.8960   -0.0329    2.1325 H   0  0
    2.2636    0.1292    1.3403 H   0  0
    1.5076   -0.5992   -0.0971 H   0  0
    1.9392    1.1277   -0.0971 H   0  0
   -2.9727    5.1099   -1.6531 H   0  0
   -2.9020    4.2227   -3.1945 H   0  0
   -3.0577    5.9959   -3.1945 H   0  0
  1  2  1  0
  3  2  1  0
  3  4  1  0
  5  4  1  0
  5  6  1  0
  7  5  1  0
  7  8  1  0
  7  9  1  0
  9 10  1  0
  9 11  1  0
 11  3  1  0
 11 12  1  0
  8 13  1  0
 13 15  1  0
 13 14  2  0
  6 16  1  0
 17 18  1  0
 19 20  2  0
 20 21  1  0
 17 21  2  0
 18 16  2  0
 16 19  1  0
 21 22  1  0
 22 23  1  0
 23 25  1  0
 22 24  2  0
  1 26  1  0
 26 28  1  0
 26 27  2  0
  1 29  1  0
  2 30  1  0
  2 31  1  0
  3 32  1  0
  5 33  1  0
  7 34  1  0
  8 35  1  0
  9 36  1  0
 10 37  1  0
 11 38  1  0
 12 39  1  0
 15 40  1  0
 15 41  1  0
 15 42  1  0
 17 43  1  0
 18 44  1  0
 19 45  1  0
 20 46  1  0
 25 47  1  0
 25 48  1  0
 25 49  1  0
 28 50  1  0
 28 51  1  0
 28 52  1  0
M  END
> <Name>
RMM2007 - Produto - (15)

$$$$
RMM2007 - Produto - (23)
  SciTegic12132405553D

 55 57  0  0  0  0            999 V2000
   -3.6444    5.4561   -8.7314 O   0  0
   -4.7983    5.3298   -7.9052 C   0  0
   -4.5817    4.2191   -6.8457 C   0  0  1  0  0  0
   -3.4276    4.5715   -6.0460 O   0  0
   -3.0297    3.5624   -5.0872 C   0  0  1  0  0  0
   -1.8788    4.0096   -4.3347 O   0  0
   -4.1829    3.3013   -4.0694 C   0  0  2  0  0  0
   -3.8466    2.3036   -3.0912 N   0  0
   -5.5370    3.0054   -4.7890 C   0  0  1  0  0  0
   -6.6496    3.0701   -3.8752 O   0  0
   -5.8224    4.0260   -5.9244 C   0  0  2  0  0  0
   -6.9486    3.5818   -6.6833 O   0  0
   -3.5540    0.9895   -3.3156 C   0  0
   -3.5278    0.4898   -4.4645 O   0  0
   -3.2672    0.0973   -2.1832 C   0  0
   -0.7014    4.0461   -5.0356 C   0  0
    1.3555    2.9542   -5.7837 C   0  0
    0.1275    2.9068   -5.0966 C   0  0
   -0.2764    5.2398   -5.6519 C   0  0
    0.9550    5.2910   -6.3324 C   0  0
    1.7858    4.1488   -6.4079 C   0  0
    3.0830    4.2253   -7.1211 C   0  0
   -6.9253    2.2002   -2.8625 C   0  0
   -6.9831    2.7009   -1.7163 O   0  0
   -7.2280    0.8292   -3.0752 C   0  0
   -7.1284   -0.1091   -2.0174 C   0  0
   -7.4313   -1.4674   -2.2276 C   0  0
   -7.8368   -1.9114   -3.4985 C   0  0
   -7.9477   -0.9936   -4.5577 C   0  0
   -7.6531    0.3659   -4.3454 C   0  0
   -2.8635    5.5416   -8.1796 H   0  0
   -4.8796    6.2834   -7.3833 H   0  0
   -5.5940    5.0062   -8.5762 H   0  0
   -4.3558    3.2734   -7.3383 H   0  0
   -2.7386    2.6934   -5.6774 H   0  0
   -4.2975    4.1745   -3.4273 H   0  0
   -3.8112    2.5605   -2.1151 H   0  0
   -5.5045    1.9805   -5.1584 H   0  0
   -6.1251    4.9885   -5.5120 H   0  0
   -7.6480    3.3060   -6.0864 H   0  0
   -3.3495   -0.9399   -2.5079 H   0  0
   -2.2571    0.2852   -1.8194 H   0  0
   -3.9826    0.2852   -1.3825 H   0  0
    1.9773    2.0602   -5.8328 H   0  0
   -0.1833    1.9827   -4.6091 H   0  0
   -0.9042    6.1294   -5.6020 H   0  0
    1.2678    6.2223   -6.8045 H   0  0
    3.8946    4.2732   -6.3951 H   0  0
    3.2066    3.3411   -7.7464 H   0  0
    3.1018    5.1180   -7.7464 H   0  0
   -6.8138    0.2192   -1.0267 H   0  0
   -7.3517   -2.1772   -1.4042 H   0  0
   -8.0648   -2.9647   -3.6623 H   0  0
   -8.2620   -1.3361   -5.5436 H   0  0
   -7.7552    1.0673   -5.1734 H   0  0
  1  2  1  0
  3  2  1  0
  3  4  1  0
  5  4  1  0
  5  6  1  0
  5  7  1  0
  7  8  1  0
  7  9  1  0
  9 10  1  0
  9 11  1  0
 11  3  1  0
 11 12  1  0
  8 13  1  0
 13 15  1  0
 13 14  2  0
  6 16  1  0
 17 18  1  0
 19 20  2  0
 20 21  1  0
 17 21  2  0
 18 16  2  0
 16 19  1  0
 21 22  1  0
 10 23  1  0
 23 25  1  0
 26 27  2  0
 27 28  1  0
 28 29  2  0
 29 30  1  0
 25 26  1  0
 25 30  2  0
 23 24  2  0
  1 31  1  0
  2 32  1  0
  2 33  1  0
  3 34  1  0
  5 35  1  0
  7 36  1  0
  8 37  1  0
  9 38  1  0
 11 39  1  0
 12 40  1  0
 15 41  1  0
 15 42  1  0
 15 43  1  0
 17 44  1  0
 18 45  1  0
 19 46  1  0
 20 47  1  0
 22 48  1  0
 22 49  1  0
 22 50  1  0
 26 51  1  0
 27 52  1  0
 28 53  1  0
 29 54  1  0
 30 55  1  0
M  END
> <Name>
RMM2007 - Produto - (23)

$$$$
RMM2007 - Produto - (24)
  SciTegic12132405553D

 55 57  0  0  0  0            999 V2000
   -2.2196    4.5451   -9.1318 O   0  0
   -3.5902    4.4854   -8.2382 C   0  0
   -3.4731    3.2168   -6.9901 C   0  0  1  0  0  0
   -2.1684    3.5877   -6.0227 O   0  0
   -1.8569    2.5193   -4.7856 C   0  0  2  0  0  0
   -1.3112    1.0623   -5.3769 O   0  0
   -3.2944    2.3035   -3.7290 C   0  0  2  0  0  0
   -2.9901    1.2578   -2.4826 N   0  0
   -4.7947    1.9721   -4.6603 C   0  0  1  0  0  0
   -6.1411    2.1484   -3.7075 O   0  0
   -4.9699    3.1340   -6.0076 C   0  0  2  0  0  0
   -6.2660    2.7159   -6.9326 O   0  0
   -2.8391   -0.3049   -2.5371 C   0  0
   -3.0433   -1.0695   -3.7444 O   0  0
   -2.4036   -1.1528   -1.1375 C   0  0
    0.1677    1.0708   -5.9277 C   0  0
    1.9598    1.0297   -8.0929 C   0  0
    0.4419    1.0734   -7.5261 C   0  0
    1.4275    1.0154   -4.9048 C   0  0
    2.9437    0.9989   -5.4698 C   0  0
    3.2291    1.0124   -7.0730 C   0  0
    4.8204    1.0220   -7.6936 C   0  0
   -6.7026    1.1850   -2.5989 C   0  0
   -7.1031    1.8135   -1.3641 O   0  0
   -6.9918   -0.4028   -2.8344 C   0  0
   -7.0026   -1.4549   -1.5881 C   0  0
   -7.3196   -3.0254   -1.8308 C   0  0
   -7.6293   -3.5677   -3.3228 C   0  0
   -7.6250   -2.5401   -4.5699 C   0  0
   -7.3162   -0.9704   -4.3271 C   0  0
   -1.4582    4.5783   -8.5480 H   0  0
   -3.6402    5.4506   -7.7341 H   0  0
   -4.3721    4.1962   -8.9404 H   0  0
   -3.2788    2.2390   -7.4308 H   0  0
   -1.0119    2.9438   -4.2435 H   0  0
   -3.4826    3.2084   -3.1512 H   0  0
   -2.8801    1.6287   -1.5497 H   0  0
   -4.7815    0.9345   -4.9940 H   0  0
   -5.2194    4.1278   -5.6357 H   0  0
   -7.0019    2.4785   -6.3637 H   0  0
   -2.4631   -2.2243   -1.3284 H   0  0
   -1.3840   -0.8899   -0.8559 H   0  0
   -3.0836   -0.8899   -0.3271 H   0  0
    2.1285    1.0117   -9.1697 H   0  0
   -0.3968    1.1046   -8.2217 H   0  0
    1.2538    0.9890   -3.8290 H   0  0
    3.7768    0.9786   -4.7672 H   0  0
    5.5323    1.0264   -6.8682 H   0  0
    4.9775    0.1330   -8.3044 H   0  0
    4.9667    1.9129   -8.3044 H   0  0
   -6.7947   -1.1031   -0.5776 H   0  0
   -7.3247   -3.7180   -0.9892 H   0  0
   -7.8405   -4.6243   -3.4876 H   0  0
   -7.8306   -2.9061   -5.5759 H   0  0
   -7.3269   -0.2886   -5.1775 H   0  0
  1  2  1  0
  3  2  1  0
  3  4  1  0
  5  4  1  0
  5  6  1  0
  7  5  1  0
  7  8  1  0
  7  9  1  0
  9 10  1  0
  9 11  1  0
 11  3  1  0
 11 12  1  0
  8 13  1  0
 13 15  1  0
 13 14  2  0
  6 16  1  0
 17 18  1  0
 19 20  2  0
 20 21  1  0
 17 21  2  0
 18 16  2  0
 16 19  1  0
 21 22  1  0
 10 23  1  0
 23 25  1  0
 26 27  2  0
 27 28  1  0
 28 29  2  0
 29 30  1  0
 25 26  1  0
 25 30  2  0
 23 24  2  0
  1 31  1  0
  2 32  1  0
  2 33  1  0
  3 34  1  0
  5 35  1  0
  7 36  1  0
  8 37  1  0
  9 38  1  0
 11 39  1  0
 12 40  1  0
 15 41  1  0
 15 42  1  0
 15 43  1  0
 17 44  1  0
 18 45  1  0
 19 46  1  0
 20 47  1  0
 22 48  1  0
 22 49  1  0
 22 50  1  0
 26 51  1  0
 27 52  1  0
 28 53  1  0
 29 54  1  0
 30 55  1  0
M  END
> <Name>
RMM2007 - Produto - (24)

$$$$
RMM2007 - Produto - (25)
  SciTegic12132405553D

 67 69  0  0  0  0            999 V2000
    5.2744    4.2535   -3.6086 O   0  0
    3.9655    4.6049   -3.1315 C   0  0
    3.4122    3.4054   -2.3223 C   0  0  1  0  0  0
    4.2899    3.2458   -1.1863 O   0  0
    3.9988    2.1014   -0.3572 C   0  0  1  0  0  0
    4.9807    2.0228    0.7015 O   0  0
    2.5810    2.2527    0.2726 C   0  0  2  0  0  0
    2.2478    1.1582    1.1468 N   0  0
    1.4941    2.5075   -0.8237 C   0  0  1  0  0  0
    0.2380    2.9321   -0.2537 O   0  0
    1.9346    3.5995   -1.8521 C   0  0  2  0  0  0
    0.9754    3.8058   -2.9187 O   0  0
    2.1541   -0.1669    0.8337 C   0  0
    2.3870   -0.6079   -0.3158 O   0  0
    1.7651   -1.1375    1.8684 C   0  0
    6.2293    1.6521    0.2687 C   0  0
    7.8423   -0.1043   -0.2729 C   0  0
    6.5663    0.2865    0.1742 C   0  0
    7.1966    2.6240   -0.0583 C   0  0
    8.4758    2.2351   -0.4996 C   0  0
    8.8114    0.8661   -0.6187 C   0  0
   10.1606    0.4699   -1.0920 C   0  0
   -0.5492    2.1859    0.5754 C   0  0
   -0.5317    2.4956    1.7898 O   0  0
   -1.3765    1.1384    0.0908 C   0  0
   -1.8477    0.1321    0.9778 C   0  0
   -2.6597   -0.9517    0.4595 C   0  0
   -3.0509   -1.0840   -0.9583 C   0  0
   -2.5235    0.0106   -1.7966 C   0  0
   -1.7144    1.0995   -1.2873 C   0  0
    5.9789    5.4863   -4.5760 S   0  0
    6.1183    6.8281   -3.7118 O   0  0
    5.0689    5.7411   -5.8700 O   0  0
    7.6336    4.9170   -5.0949 C   0  0
    0.8430    2.6584   -4.2042 S   0  0
    0.7453    1.1503   -3.6734 O   0  0
    2.0821    2.7994   -5.2111 O   0  0
   -0.6858    3.0456   -5.1295 C   0  0
    4.1131    5.4406   -2.4476 H   0  0
    3.3490    4.7313   -4.0215 H   0  0
    3.4467    2.4902   -2.9133 H   0  0
    4.1044    1.2152   -0.9829 H   0  0
    2.5828    3.0793    0.9832 H   0  0
    2.0517    1.3472    2.1193 H   0  0
    1.2888    1.5522   -1.3067 H   0  0
    1.8637    4.5835   -1.3886 H   0  0
    1.9380   -0.7062    2.8544 H   0  0
    0.7085   -1.3815    1.7587 H   0  0
    2.3606   -2.0438    1.7587 H   0  0
    8.0813   -1.1648   -0.3518 H   0  0
    5.8346   -0.4733    0.4489 H   0  0
    6.9539    3.6829    0.0305 H   0  0
    9.2115    2.9992   -0.7507 H   0  0
   10.8055    0.2806   -0.2340 H   0  0
   10.0829   -0.4348   -1.6949 H   0  0
   10.5844    1.2730   -1.6949 H   0  0
   -1.5912    0.1905    2.0356 H   0  0
   -2.9932   -1.7058    1.1724 H   0  0
   -3.6620   -1.9002   -1.3438 H   0  0
   -2.7464    0.0151   -2.8635 H   0  0
   -1.3582    1.8931   -1.9441 H   0  0
    8.2392    4.7086   -4.2130 H   0  0
    7.5353    4.0096   -5.6909 H   0  0
    8.1144    5.6928   -5.6909 H   0  0
   -1.4937    3.2502   -4.4270 H   0  0
   -0.5190    3.9214   -5.7565 H   0  0
   -0.9560    2.1959   -5.7565 H   0  0
  1  2  1  0
  3  2  1  0
  3  4  1  0
  5  4  1  0
  5  6  1  0
  5  7  1  0
  7  8  1  0
  7  9  1  0
  9 10  1  0
  9 11  1  0
 11  3  1  0
 11 12  1  0
  8 13  1  0
 13 15  1  0
 13 14  2  0
  6 16  1  0
 17 18  1  0
 19 20  2  0
 20 21  1  0
 17 21  2  0
 18 16  2  0
 16 19  1  0
 21 22  1  0
 10 23  1  0
 23 25  1  0
 26 27  2  0
 27 28  1  0
 28 29  2  0
 29 30  1  0
 25 26  1  0
 25 30  2  0
 23 24  2  0
  1 31  1  0
 31 32  2  0
 31 34  1  0
 31 33  2  0
 12 35  1  0
 35 38  1  0
 35 36  2  0
 35 37  2  0
  2 39  1  0
  2 40  1  0
  3 41  1  0
  5 42  1  0
  7 43  1  0
  8 44  1  0
  9 45  1  0
 11 46  1  0
 15 47  1  0
 15 48  1  0
 15 49  1  0
 17 50  1  0
 18 51  1  0
 19 52  1  0
 20 53  1  0
 22 54  1  0
 22 55  1  0
 22 56  1  0
 26 57  1  0
 27 58  1  0
 28 59  1  0
 29 60  1  0
 30 61  1  0
 34 62  1  0
 34 63  1  0
 34 64  1  0
 38 65  1  0
 38 66  1  0
 38 67  1  0
M  END
> <Name>
RMM2007 - Produto - (25)

$$$$
RMM2007 - Produto - (26)
  SciTegic12132405553D

 67 69  0  0  0  0            999 V2000
    6.5238    1.1958    0.4368 O   0  0
    5.2643    1.4007    1.0941 C   0  0
    4.9541    0.1336    1.9288 C   0  0  1  0  0  0
    6.0015    0.0301    2.9188 O   0  0
    5.9450   -1.1420    3.7588 C   0  0  2  0  0  0
    6.1290   -2.3594    2.9963 O   0  0
    4.6052   -1.1544    4.5576 C   0  0  2  0  0  0
    4.5479   -2.2616    5.4762 N   0  0
    3.3526   -0.9854    3.6377 C   0  0  1  0  0  0
    2.1696   -0.6890    4.4102 O   0  0
    3.5418    0.1648    2.5951 C   0  0  2  0  0  0
    2.4359    0.2680    1.6644 O   0  0
    4.4066   -3.5904    5.1961 C   0  0
    4.2560   -4.0247    4.0307 O   0  0
    4.4254   -4.5831    6.2848 C   0  0
    7.3833   -2.5575    2.4746 C   0  0
    8.8715   -2.6167    0.5370 C   0  0
    7.6026   -2.3759    1.0952 C   0  0
    8.4441   -3.0178    3.2836 C   0  0
    9.7112   -3.2703    2.7250 C   0  0
    9.9408   -3.0700    1.3435 C   0  0
   11.2669   -3.3257    0.7317 C   0  0
    1.5527   -1.5302    5.2931 C   0  0
    1.6085   -1.2076    6.5032 O   0  0
    0.8253   -2.6764    4.8653 C   0  0
    0.5887   -3.7530    5.7621 C   0  0
   -0.1311   -4.9261    5.3063 C   0  0
   -0.6556   -5.0925    3.9369 C   0  0
   -0.3789   -3.9184    3.0860 C   0  0
    0.3392   -2.7412    3.5333 C   0  0
    6.9710    2.5115   -0.5724 S   0  0
    7.0500    3.8566    0.2947 O   0  0
    5.8972    2.6648   -1.7517 O   0  0
    8.6113    2.1484   -1.2883 C   0  0
    2.2844   -0.8625    0.3627 S   0  0
    2.5197   -2.3750    0.8313 O   0  0
    3.3123   -0.5010   -0.8120 O   0  0
    0.5843   -0.7253   -0.2963 C   0  0
    5.4183    2.2343    1.7793 H   0  0
    4.5228    1.4785    0.2990 H   0  0
    4.9950   -0.7639    1.3116 H   0  0
    6.8242   -1.0959    4.4016 H   0  0
    4.5783   -0.3299    5.2699 H   0  0
    4.6175   -2.0785    6.4671 H   0  0
    3.1590   -1.9415    3.1515 H   0  0
    3.4369    1.1297    3.0911 H   0  0
    4.4181   -5.5873    5.8610 H   0  0
    5.3258   -4.4482    6.8841 H   0  0
    3.5461   -4.4482    6.9147 H   0  0
    9.0274   -2.4506   -0.5290 H   0  0
    6.7843   -2.0465    0.4549 H   0  0
    8.2833   -3.1798    4.3495 H   0  0
   10.5193   -3.6229    3.3659 H   0  0
   12.0082   -3.4687    1.5179 H   0  0
   11.2152   -4.2221    0.1138 H   0  0
   11.5522   -2.4744    0.1138 H   0  0
    0.9545   -3.6798    6.7863 H   0  0
   -0.2861   -5.7251    6.0314 H   0  0
   -1.1863   -5.9805    3.5934 H   0  0
   -0.7297   -3.9209    2.0540 H   0  0
    0.5148   -1.8993    2.8637 H   0  0
    9.3310    1.9891   -0.4854 H   0  0
    8.5487    1.2507   -1.9035 H   0  0
    8.9334    2.9886   -1.9035 H   0  0
   -0.1227   -0.6682    0.5313 H   0  0
    0.5027    0.1742   -0.9066 H   0  0
    0.3595   -1.6000   -0.9066 H   0  0
  1  2  1  0
  3  2  1  0
  3  4  1  0
  5  4  1  0
  5  6  1  0
  5  7  1  0
  7  8  1  0
  7  9  1  0
  9 10  1  0
  9 11  1  0
 11  3  1  0
 11 12  1  0
  8 13  1  0
 13 15  1  0
 13 14  2  0
  6 16  1  0
 17 18  1  0
 19 20  2  0
 20 21  1  0
 17 21  2  0
 18 16  2  0
 16 19  1  0
 21 22  1  0
 10 23  1  0
 23 25  1  0
 26 27  2  0
 27 28  1  0
 28 29  2  0
 29 30  1  0
 25 26  1  0
 25 30  2  0
 23 24  2  0
  1 31  1  0
 31 32  2  0
 31 34  1  0
 31 33  2  0
 12 35  1  0
 35 38  1  0
 35 36  2  0
 35 37  2  0
  2 39  1  0
  2 40  1  0
  3 41  1  0
  5 42  1  0
  7 43  1  0
  8 44  1  0
  9 45  1  0
 11 46  1  0
 15 47  1  0
 15 48  1  0
 15 49  1  0
 17 50  1  0
 18 51  1  0
 19 52  1  0
 20 53  1  0
 22 54  1  0
 22 55  1  0
 22 56  1  0
 26 57  1  0
 27 58  1  0
 28 59  1  0
 29 60  1  0
 30 61  1  0
 34 62  1  0
 34 63  1  0
 34 64  1  0
 38 65  1  0
 38 66  1  0
 38 67  1  0
M  END
> <Name>
RMM2007 - Produto - (26)

$$$$
RMM2007 - Produto - (27)
  SciTegic12132405553D

 55 56  0  0  0  0            999 V2000
    2.6635    2.8736   -3.0976 O   0  0
    1.5207    2.9644   -2.2262 C   0  0
    1.5829    1.8549   -1.1459 C   0  0  1  0  0  0
    2.7829    2.0712   -0.3744 O   0  0
    3.0375    1.0655    0.6331 C   0  0  1  0  0  0
    4.3096    1.3129    1.2714 O   0  0
    1.9113    1.0988    1.7028 C   0  0  2  0  0  0
    2.1898    0.0764    2.6694 N   0  0
    0.5356    0.8797    1.0000 C   0  0  1  0  0  0
   -0.5370    1.0333    1.9299 O   0  0
    0.3341    1.8539   -0.2042 C   0  0  2  0  0  0
   -0.9435    1.7137   -0.8701 O   0  0
    1.8407    0.0876    3.9831 C   0  0
    1.1829    1.0318    4.4817 O   0  0
    2.2353   -1.0297    4.8553 C   0  0
    5.3567    1.2173    0.3956 C   0  0
    6.8791    2.2859   -1.1799 C   0  0
    5.8459    2.3784   -0.2314 C   0  0
    5.9422   -0.0311    0.1094 C   0  0
    6.9741   -0.1253   -0.8423 C   0  0
    7.4431    1.0316   -1.5080 C   0  0
    8.5034    0.9545   -2.5394 C   0  0
    2.6417    4.0877   -4.3189 S   0  0
    2.7893    5.5300   -3.6346 O   0  0
    1.2668    4.0017   -5.1368 O   0  0
    4.0377    3.8130   -5.4652 C   0  0
   -1.2940    0.3022   -1.8000 S   0  0
   -1.2397   -1.0241   -0.9055 O   0  0
   -0.3062    0.1756   -3.0556 O   0  0
   -2.9985    0.4967   -2.4329 C   0  0
    1.6174    3.9269   -1.7239 H   0  0
    0.6576    2.7654   -2.8615 H   0  0
    1.6650    0.8742   -1.6145 H   0  0
    3.1181    0.1108    0.1133 H   0  0
    1.8904    2.0199    2.2853 H   0  0
    2.6938   -0.7533    2.3907 H   0  0
    0.4573   -0.1563    0.6703 H   0  0
   -0.1939    0.9842    2.8251 H   0  0
    0.1770    2.8679    0.1634 H   0  0
    2.1299   -0.7312    5.8983 H   0  0
    1.5950   -1.8892    4.6569 H   0  0
    3.2734   -1.2964    4.6569 H   0  0
    7.2447    3.1917   -1.6636 H   0  0
    5.4236    3.3517    0.0182 H   0  0
    5.5959   -0.9264    0.6257 H   0  0
    7.4120   -1.0983   -1.0648 H   0  0
    9.4772    0.8838   -2.0549 H   0  0
    8.3420    0.0739   -3.1612 H   0  0
    8.4711    1.8492   -3.1612 H   0  0
    4.9479    3.6340   -4.8929 H   0  0
    3.8272    2.9474   -6.0933 H   0  0
    4.1708    4.6939   -6.0933 H   0  0
   -3.6906    0.5757   -1.5945 H   0  0
   -3.0596    1.3995   -3.0407 H   0  0
   -3.2614   -0.3690   -3.0407 H   0  0
  1  2  1  0
  3  2  1  0
  3  4  1  0
  5  4  1  0
  5  6  1  0
  5  7  1  0
  7  8  1  0
  7  9  1  0
  9 10  1  0
  9 11  1  0
 11  3  1  0
 11 12  1  0
  8 13  1  0
 13 15  1  0
 13 14  2  0
  6 16  1  0
 17 18  1  0
 19 20  2  0
 20 21  1  0
 17 21  2  0
 18 16  2  0
 16 19  1  0
 21 22  1  0
  1 23  1  0
 23 24  2  0
 23 26  1  0
 23 25  2  0
 12 27  1  0
 27 30  1  0
 27 28  2  0
 27 29  2  0
  2 31  1  0
  2 32  1  0
  3 33  1  0
  5 34  1  0
  7 35  1  0
  8 36  1  0
  9 37  1  0
 10 38  1  0
 11 39  1  0
 15 40  1  0
 15 41  1  0
 15 42  1  0
 17 43  1  0
 18 44  1  0
 19 45  1  0
 20 46  1  0
 22 47  1  0
 22 48  1  0
 22 49  1  0
 26 50  1  0
 26 51  1  0
 26 52  1  0
 30 53  1  0
 30 54  1  0
 30 55  1  0
M  END
> <Name>
RMM2007 - Produto - (27)

$$$$
RMM2007 - Produto - (28)
  SciTegic12132405553D

 55 56  0  0  0  0            999 V2000
    6.8938    0.4955    0.7554 O   0  0
    5.8190    1.0285    1.5434 C   0  0
    5.4062   -0.0517    2.5736 C   0  0  1  0  0  0
    6.5578   -0.2719    3.4181 O   0  0
    6.4100   -1.3128    4.4067 C   0  0  2  0  0  0
    6.2308   -2.6134    3.7955 O   0  0
    5.2378   -0.9594    5.3734 C   0  0  2  0  0  0
    5.1144   -1.9290    6.4307 N   0  0
    3.9115   -0.6249    4.6168 C   0  0  1  0  0  0
    2.9468   -0.0073    5.4954 O   0  0
    4.1513    0.3457    3.4142 C   0  0  2  0  0  0
    2.9525    0.5842    2.6360 O   0  0
    4.6756   -3.2194    6.3518 C   0  0
    4.2599   -3.7296    5.2857 O   0  0
    4.6749   -4.0764    7.5505 C   0  0
    7.3236   -3.1247    3.1403 C   0  0
    8.4441   -3.6961    1.0450 C   0  0
    7.3513   -3.1364    1.7322 C   0  0
    8.3902   -3.7132    3.8529 C   0  0
    9.4790   -4.2839    3.1671 C   0  0
    9.5199   -4.2799    1.7530 C   0  0
   10.6566   -4.8716    1.0075 C   0  0
    7.4208    1.5759   -0.4712 S   0  0
    7.8959    2.9558    0.1903 O   0  0
    6.2231    1.8306   -1.5046 O   0  0
    8.8243    0.8026   -1.3471 C   0  0
    2.3795   -0.6166    1.5289 S   0  0
    2.3889   -2.0883    2.1588 O   0  0
    3.2573   -0.6033    0.1887 O   0  0
    0.6553   -0.1916    1.0930 C   0  0
    6.2386    1.8767    2.0843 H   0  0
    4.9896    1.1791    0.8524 H   0  0
    5.1737   -0.9962    2.0817 H   0  0
    7.3724   -1.3877    4.9131 H   0  0
    5.4850   -0.0790    5.9666 H   0  0
    5.3750   -1.6638    7.3697 H   0  0
    3.4615   -1.5634    4.2929 H   0  0
    3.1969   -0.1674    6.4083 H   0  0
    4.3157    1.3568    3.7868 H   0  0
    4.6751   -5.1237    7.2484 H   0  0
    5.5646   -3.8697    8.1454 H   0  0
    3.7846   -3.8697    8.1444 H   0  0
    8.4573   -3.6773   -0.0448 H   0  0
    6.5209   -2.7092    1.1701 H   0  0
    8.3730   -3.7270    4.9427 H   0  0
   10.2951   -4.7315    3.7343 H   0  0
   11.3935   -5.2553    1.7131 H   0  0
   10.2950   -5.6868    0.3806 H   0  0
   11.1170   -4.1079    0.3806 H   0  0
    9.5352    0.4109   -0.6196 H   0  0
    8.4582   -0.0118   -1.9722 H   0  0
    9.3172    1.5472   -1.9722 H   0  0
    0.0748   -0.0485    2.0044 H   0  0
    0.6446    0.7277    0.5073 H   0  0
    0.2186   -1.0006    0.5073 H   0  0
  1  2  1  0
  3  2  1  0
  3  4  1  0
  5  4  1  0
  5  6  1  0
  5  7  1  0
  7  8  1  0
  7  9  1  0
  9 10  1  0
  9 11  1  0
 11  3  1  0
 11 12  1  0
  8 13  1  0
 13 15  1  0
 13 14  2  0
  6 16  1  0
 17 18  1  0
 19 20  2  0
 20 21  1  0
 17 21  2  0
 18 16  2  0
 16 19  1  0
 21 22  1  0
  1 23  1  0
 23 24  2  0
 23 26  1  0
 23 25  2  0
 12 27  1  0
 27 30  1  0
 27 28  2  0
 27 29  2  0
  2 31  1  0
  2 32  1  0
  3 33  1  0
  5 34  1  0
  7 35  1  0
  8 36  1  0
  9 37  1  0
 10 38  1  0
 11 39  1  0
 15 40  1  0
 15 41  1  0
 15 42  1  0
 17 43  1  0
 18 44  1  0
 19 45  1  0
 20 46  1  0
 22 47  1  0
 22 48  1  0
 22 49  1  0
 26 50  1  0
 26 51  1  0
 26 52  1  0
 30 53  1  0
 30 54  1  0
 30 55  1  0
M  END
> <Name>
RMM2007 - Produto - (28)

$$$$
RMM2007 - Produto - (29)
  SciTegic12132405553D

 57 59  0  0  0  0            999 V2000
   -3.4382    3.4103   -3.3287 N   0  0
   -4.3046    2.6601   -2.5396 C   0  0
   -3.9730    1.1401   -2.6570 C   0  0  1  0  0  0
   -2.5695    0.8373   -2.4503 O   0  0
   -2.0783    0.8075   -1.0911 C   0  0  1  0  0  0
   -2.0501    2.1594   -0.5765 O   0  0
   -2.9067   -0.1786   -0.2129 C   0  0  2  0  0  0
   -2.6679   -1.5195   -0.6613 N   0  0
   -4.4347    0.1087   -0.3247 C   0  0  1  0  0  0
   -4.7363    1.3006    0.4240 O   0  0
   -4.8763    0.1678   -1.8220 C   0  0  1  0  0  0
   -6.2438    0.4224   -1.9276 N   0  0
   -2.4132   -2.6079    0.1128 C   0  0
   -2.2691   -2.5197    1.3548 O   0  0
   -2.3401   -3.9408   -0.5078 C   0  0
   -1.1843    2.4011    0.4568 C   0  0
   -0.8092    2.9161    2.8138 C   0  0
   -1.6867    2.6156    1.7553 C   0  0
    0.2029    2.5063    0.2251 C   0  0
    1.0813    2.8065    1.2810 C   0  0
    0.5835    3.0160    2.5879 C   0  0
    1.4873    3.3394    3.7162 C   0  0
   -5.9510    1.5979    0.9716 C   0  0
   -6.6956    2.3556    0.3072 O   0  0
   -6.3327    1.1234    2.2578 C   0  0
   -7.6785    1.2025    2.6972 C   0  0
   -8.0628    0.7061    3.9566 C   0  0
   -7.1058    0.1251    4.8055 C   0  0
   -5.7653    0.0417    4.3916 C   0  0
   -5.3829    0.5345    3.1299 C   0  0
   -3.5787    4.5452   -3.5524 N   0  0
   -3.7204    5.6743   -3.7889 N   0  0
   -6.8843    0.1769   -2.8701 N   0  0
   -7.5235   -0.0746   -3.8065 N   0  0
   -4.0936    2.9828   -1.5200 H   0  0
   -5.2891    2.8343   -2.9737 H   0  0
   -4.1267    0.9170   -3.7128 H   0  0
   -1.0364    0.4883   -1.1183 H   0  0
   -2.5746   -0.1299    0.8241 H   0  0
   -2.6807   -1.7238   -1.6504 H   0  0
   -5.0473   -0.6436    0.1722 H   0  0
   -4.8572   -0.8160   -2.2909 H   0  0
   -2.2984   -4.7024    0.2709 H   0  0
   -3.2226   -4.1022   -1.1269 H   0  0
   -1.4453   -4.0048   -1.1269 H   0  0
   -1.2109    3.0725    3.8149 H   0  0
   -2.7585    2.5488    1.9418 H   0  0
    0.5995    2.3544   -0.7787 H   0  0
    2.1513    2.8770    1.0858 H   0  0
    1.8493    2.4159    4.1680 H   0  0
    2.3335    3.9202    3.3489 H   0  0
    0.9443    3.9202    4.4617 H   0  0
   -8.4333    1.6542    2.0535 H   0  0
   -9.1031    0.7718    4.2751 H   0  0
   -7.4023   -0.2595    5.7814 H   0  0
   -5.0211   -0.4060    5.0502 H   0  0
   -4.3392    0.4593    2.8246 H   0  0
  1  2  1  0
  3  2  1  0
  3  4  1  0
  5  4  1  0
  5  6  1  0
  7  5  1  0
  7  8  1  0
  9  7  1  0
  9 10  1  0
 11  9  1  0
 11  3  1  0
 11 12  1  0
  8 13  1  0
 13 15  1  0
 13 14  2  0
  6 16  1  0
 17 18  1  0
 19 20  2  0
 20 21  1  0
 17 21  2  0
 18 16  2  0
 16 19  1  0
 21 22  1  0
 10 23  1  0
 23 25  1  0
 26 27  2  0
 27 28  1  0
 28 29  2  0
 29 30  1  0
 25 26  1  0
 25 30  2  0
 23 24  2  0
 31 32  2  0
 33 34  2  0
 12 33  2  0
  1 31  2  0
  2 35  1  0
  2 36  1  0
  3 37  1  0
  5 38  1  0
  7 39  1  0
  8 40  1  0
  9 41  1  0
 11 42  1  0
 15 43  1  0
 15 44  1  0
 15 45  1  0
 17 46  1  0
 18 47  1  0
 19 48  1  0
 20 49  1  0
 22 50  1  0
 22 51  1  0
 22 52  1  0
 26 53  1  0
 27 54  1  0
 28 55  1  0
 29 56  1  0
 30 57  1  0
M  END
> <Name>
RMM2007 - Produto - (29)

$$$$
RMM2007 - Produto - (31)
  SciTegic12132405553D

 45 46  0  0  0  0            999 V2000
   -3.3661    4.4599   -3.1002 N   0  0
   -3.8371    3.6112   -2.1065 C   0  0
   -3.1057    2.2360   -2.1524 C   0  0  1  0  0  0
   -1.6632    2.3393   -2.2685 O   0  0
   -0.9045    2.6872   -1.0881 C   0  0  1  0  0  0
   -1.1103    4.0906   -0.7845 O   0  0
   -1.2191    1.7002    0.0882 C   0  0  2  0  0  0
   -0.6896    0.3869   -0.1664 N   0  0
   -2.7610    1.6245    0.3257 C   0  0  2  0  0  0
   -3.1124    0.7078    1.3202 N   0  0
   -3.4985    1.2653   -0.9957 C   0  0  1  0  0  0
   -4.9115    1.2417   -0.7931 O   0  0
    0.6236    0.0297   -0.1156 C   0  0
    1.5201    0.8612    0.1626 O   0  0
    1.0183   -1.3604   -0.3974 C   0  0
   -0.2972    4.6202    0.1879 C   0  0
    1.8925    5.3586    0.9892 C   0  0
    1.0736    4.8612   -0.0420 C   0  0
   -0.8498    4.9421    1.4437 C   0  0
   -0.0344    5.4468    2.4748 C   0  0
    1.3496    5.6465    2.2650 C   0  0
    2.2017    6.1415    3.3720 C   0  0
   -3.6603    5.5835   -3.1741 N   0  0
   -3.9484    6.7071   -3.2475 N   0  0
   -2.8417    0.8247    2.4473 N   0  0
   -2.5627    0.9355    3.5690 N   0  0
   -3.5718    4.1120   -1.1754 H   0  0
   -4.8852    3.4530   -2.3608 H   0  0
   -3.3854    1.7900   -3.1068 H   0  0
    0.1554    2.6306   -1.3364 H   0  0
   -0.6908    2.0044    0.9918 H   0  0
   -1.3112   -0.3714   -0.4086 H   0  0
   -3.1132    2.5580    0.7647 H   0  0
   -3.2762    0.2381   -1.2847 H   0  0
   -5.0997    1.2385    0.1483 H   0  0
    1.1694   -1.8926    0.5417 H   0  0
    0.2327   -1.8519   -0.9712 H   0  0
    1.9449   -1.3657   -0.9712 H   0  0
    2.9532    5.5219    0.7987 H   0  0
    1.5033    4.6616   -1.0237 H   0  0
   -1.9161    4.7997    1.6188 H   0  0
   -0.4777    5.6845    3.4418 H   0  0
    2.6199    5.2942    3.9154 H   0  0
    3.0111    6.7472    2.9645 H   0  0
    1.6006    6.7472    4.0502 H   0  0
  1  2  1  0
  3  2  1  0
  3  4  1  0
  5  4  1  0
  5  6  1  0
  7  5  1  0
  7  8  1  0
  7  9  1  0
  9 10  1  0
  9 11  1  0
 11  3  1  0
 11 12  1  0
  8 13  1  0
 13 15  1  0
 13 14  2  0
  6 16  1  0
 17 18  1  0
 19 20  2  0
 20 21  1  0
 17 21  2  0
 18 16  2  0
 16 19  1  0
 21 22  1  0
 10 25  2  0
 25 26  2  0
 23 24  2  0
  1 23  2  0
  2 27  1  0
  2 28  1  0
  3 29  1  0
  5 30  1  0
  7 31  1  0
  8 32  1  0
  9 33  1  0
 11 34  1  0
 12 35  1  0
 15 36  1  0
 15 37  1  0
 15 38  1  0
 17 39  1  0
 18 40  1  0
 19 41  1  0
 20 42  1  0
 22 43  1  0
 22 44  1  0
 22 45  1  0
M  END
> <Name>
RMM2007 - Produto - (31)

$$$$
RMM2007 - Produto - (32)
  SciTegic12132405553D

 45 46  0  0  0  0            999 V2000
   -1.3129   -1.5540   -1.8925 N   0  0
   -2.4755   -0.9751   -1.3930 C   0  0
   -3.0281   -1.8200   -0.2158 C   0  0  1  0  0  0
   -2.0858   -1.7708    0.8817 O   0  0
   -2.3904   -2.6528    1.9909 C   0  0  2  0  0  0
   -2.2195   -4.0477    1.6299 O   0  0
   -3.8122   -2.3757    2.5686 C   0  0  2  0  0  0
   -4.1850   -3.3856    3.5187 N   0  0
   -4.8741   -2.3118    1.4329 C   0  0  1  0  0  0
   -6.1458   -1.9133    1.9480 O   0  0
   -4.4324   -1.3635    0.2803 C   0  0  1  0  0  0
   -4.3946   -0.0437    0.7411 N   0  0
   -4.8609   -3.1833    4.6835 C   0  0
   -5.2108   -2.0376    5.0529 O   0  0
   -5.2233   -4.3263    5.5367 C   0  0
   -0.9444   -4.3541    1.2166 C   0  0
    1.4339   -4.6706    1.6881 C   0  0
    0.1260   -4.4115    2.1354 C   0  0
   -0.6952   -4.6163   -0.1456 C   0  0
    0.6125   -4.8812   -0.5930 C   0  0
    1.6928   -4.9073    0.3184 C   0  0
    3.0641   -5.1845   -0.1707 C   0  0
   -0.7677   -1.1947   -2.8573 N   0  0
   -0.2239   -0.8431   -3.8215 N   0  0
   -4.8827    0.8730    0.2132 N   0  0
   -5.3743    1.7929   -0.2973 N   0  0
   -2.1582   -0.0072   -1.0050 H   0  0
   -3.1862   -1.0252   -2.2180 H   0  0
   -3.0977   -2.8595   -0.5363 H   0  0
   -1.6102   -2.4584    2.7269 H   0  0
   -3.8025   -1.4510    3.1457 H   0  0
   -3.9435   -4.3512    3.3476 H   0  0
   -5.0552   -3.3138    1.0438 H   0  0
   -6.1192   -1.9216    2.9076 H   0  0
   -5.1584   -1.3016   -0.5304 H   0  0
   -5.1327   -4.0406    6.5847 H   0  0
   -6.2511   -4.6235    5.3287 H   0  0
   -4.5544   -5.1615    5.3287 H   0  0
    2.2524   -4.6881    2.4077 H   0  0
   -0.0588   -4.2545    3.1981 H   0  0
   -1.5198   -4.6143   -0.8584 H   0  0
    0.7898   -5.0672   -1.6523 H   0  0
    3.7327   -5.3196    0.6795 H   0  0
    3.0578   -6.0912   -0.7756 H   0  0
    3.4103   -4.3465   -0.7756 H   0  0
  1  2  1  0
  3  2  1  0
  3  4  1  0
  5  4  1  0
  5  6  1  0
  7  5  1  0
  7  8  1  0
  9  7  1  0
  9 10  1  0
 11  9  1  0
 11  3  1  0
 11 12  1  0
  8 13  1  0
 13 15  1  0
 13 14  2  0
  6 16  1  0
 17 18  1  0
 19 20  2  0
 20 21  1  0
 17 21  2  0
 18 16  2  0
 16 19  1  0
 21 22  1  0
 23 24  2  0
 25 26  2  0
 12 25  2  0
  1 23  2  0
  2 27  1  0
  2 28  1  0
  3 29  1  0
  5 30  1  0
  7 31  1  0
  8 32  1  0
  9 33  1  0
 10 34  1  0
 11 35  1  0
 15 36  1  0
 15 37  1  0
 15 38  1  0
 17 39  1  0
 18 40  1  0
 19 41  1  0
 20 42  1  0
 22 43  1  0
 22 44  1  0
 22 45  1  0
M  END
> <Name>
RMM2007 - Produto - (32)

$$$$
RMM2007 - Produto - (33)
  SciTegic12132405553D

 45 46  0  0  0  0            999 V2000
   -1.7019    4.2937   -3.4473 N   0  0
   -2.9589    4.5072   -2.8894 C   0  0
   -3.2374    3.4784   -1.7615 C   0  0  1  0  0  0
   -2.2297    3.6820   -0.7425 O   0  0
   -2.2485    2.7338    0.3496 C   0  0  2  0  0  0
   -1.8798    1.4020   -0.0882 O   0  0
   -3.6287    2.7352    1.0710 C   0  0  2  0  0  0
   -3.6860    1.6849    2.0508 N   0  0
   -4.7851    2.5812    0.0452 C   0  0  1  0  0  0
   -6.0333    2.7662    0.7141 O   0  0
   -4.6553    3.6063   -1.1205 C   0  0  2  0  0  0
   -5.6784    3.3626   -2.0407 N   0  0
   -4.2089    1.7763    3.3055 C   0  0
   -4.7410    2.8325    3.7211 O   0  0
   -4.1809    0.6117    4.2079 C   0  0
   -0.6226    1.3219   -0.6343 C   0  0
    1.8112    1.3690   -0.4029 C   0  0
    0.5293    1.4179    0.1742 C   0  0
   -0.4724    1.1213   -2.0208 C   0  0
    0.8093    1.0727   -2.5998 C   0  0
    1.9660    1.2011   -1.7985 C   0  0
    3.3060    1.1526   -2.4292 C   0  0
   -1.2606    4.9297   -4.3173 N   0  0
   -0.8154    5.5642   -5.1833 N   0  0
   -6.2302    4.1884   -2.6498 N   0  0
   -6.7762    5.0133   -3.2591 N   0  0
   -2.8958    5.4994   -2.4426 H   0  0
   -3.6566    4.3205   -3.7058 H   0  0
   -3.1395    2.4673   -2.1568 H   0  0
   -1.4386    3.0456    1.0091 H   0  0
   -3.7547    3.6486    1.6525 H   0  0
   -3.3137    0.7722    1.8310 H   0  0
   -4.8136    1.5653   -0.3489 H   0  0
   -5.8935    2.7455    1.6637 H   0  0
   -4.8512    4.6380   -0.8284 H   0  0
   -4.1891    0.9538    5.2428 H   0  0
   -5.0561   -0.0114    4.0242 H   0  0
   -3.2766    0.0314    4.0242 H   0  0
    2.6899    1.4618    0.2353 H   0  0
    0.4282    1.5308    1.2536 H   0  0
   -1.3544    1.0030   -2.6501 H   0  0
    0.9069    0.9345   -3.6766 H   0  0
    4.0717    1.1249   -1.6539 H   0  0
    3.3838    0.2592   -3.0488 H   0  0
    3.4482    2.0380   -3.0488 H   0  0
  1  2  1  0
  3  2  1  0
  3  4  1  0
  5  4  1  0
  5  6  1  0
  7  5  1  0
  7  8  1  0
  9  7  1  0
  9 10  1  0
 11  9  1  0
 11  3  1  0
 11 12  1  0
  8 13  1  0
 13 15  1  0
 13 14  2  0
  6 16  1  0
 17 18  1  0
 19 20  2  0
 20 21  1  0
 17 21  2  0
 18 16  2  0
 16 19  1  0
 21 22  1  0
 23 24  2  0
 25 26  2  0
 12 25  2  0
  1 23  2  0
  2 27  1  0
  2 28  1  0
  3 29  1  0
  5 30  1  0
  7 31  1  0
  8 32  1  0
  9 33  1  0
 10 34  1  0
 11 35  1  0
 15 36  1  0
 15 37  1  0
 15 38  1  0
 17 39  1  0
 18 40  1  0
 19 41  1  0
 20 42  1  0
 22 43  1  0
 22 44  1  0
 22 45  1  0
M  END
> <Name>
RMM2007 - Produto - (33)

$$$$
RMM2007 - Produto - (34)
  SciTegic12132405553D

 45 46  0  0  0  0            999 V2000
   -4.0548    3.6810    0.8167 N   0  0
   -4.6910    3.3702    2.0120 C   0  0
   -4.6691    1.8319    2.2645 C   0  0  1  0  0  0
   -3.3583    1.2557    2.0581 O   0  0
   -2.3786    1.5029    3.0952 C   0  0  2  0  0  0
   -1.1008    0.9502    2.7033 O   0  0
   -2.8623    0.9016    4.4445 C   0  0  2  0  0  0
   -2.9770   -0.5278    4.3495 N   0  0
   -4.2393    1.5488    4.8081 C   0  0  2  0  0  0
   -4.7846    1.0377    5.9884 N   0  0
   -5.2552    1.3699    3.6384 C   0  0  1  0  0  0
   -6.4755    2.0492    3.9280 O   0  0
   -2.7046   -1.4146    5.3510 C   0  0
   -2.2719   -1.0397    6.4676 O   0  0
   -2.9350   -2.8569    5.1551 C   0  0
   -0.5836    1.5571    1.5835 C   0  0
    0.5160    3.4605    0.5176 C   0  0
    0.0379    2.8199    1.6736 C   0  0
   -0.6851    0.9245    0.3283 C   0  0
   -0.1918    1.5604   -0.8269 C   0  0
    0.4061    2.8405   -0.7490 C   0  0
    0.9118    3.5121   -1.9702 C   0  0
   -3.9110    4.7652    0.4183 N   0  0
   -3.7653    5.8455    0.0165 N   0  0
   -4.3579    1.2470    7.0519 N   0  0
   -3.9306    1.4526    8.1124 N   0  0
   -4.0840    3.8549    2.7767 H   0  0
   -5.7244    3.6809    1.8584 H   0  0
   -5.2783    1.3984    1.4713 H   0  0
   -2.2357    2.5818    3.1566 H   0  0
   -2.1243    1.0341    5.2357 H   0  0
   -3.2817   -0.9549    3.4864 H   0  0
   -4.0954    2.5935    5.0838 H   0  0
   -5.5573    0.3248    3.5709 H   0  0
   -6.5887    2.1123    4.8793 H   0  0
   -3.0133   -3.3474    6.1253 H   0  0
   -3.8599   -3.0046    4.5975 H   0  0
   -2.1022   -3.2854    4.5975 H   0  0
    0.9754    4.4452    0.6040 H   0  0
    0.1497    3.3044    2.6436 H   0  0
   -1.1466   -0.0599    0.2507 H   0  0
   -0.2736    1.0571   -1.7903 H   0  0
    1.2138    2.7606   -2.6996 H   0  0
    0.1243    4.1348   -2.3949 H   0  0
    1.7689    4.1348   -1.7139 H   0  0
  1  2  1  0
  3  2  1  0
  3  4  1  0
  5  4  1  0
  5  6  1  0
  7  5  1  0
  7  8  1  0
  7  9  1  0
  9 10  1  0
  9 11  1  0
 11  3  1  0
 11 12  1  0
  8 13  1  0
 13 15  1  0
 13 14  2  0
  6 16  1  0
 17 18  1  0
 19 20  2  0
 20 21  1  0
 17 21  2  0
 18 16  2  0
 16 19  1  0
 21 22  1  0
 23 24  2  0
  1 23  2  0
 25 10  2  0
 25 26  2  0
  2 27  1  0
  2 28  1  0
  3 29  1  0
  5 30  1  0
  7 31  1  0
  8 32  1  0
  9 33  1  0
 11 34  1  0
 12 35  1  0
 15 36  1  0
 15 37  1  0
 15 38  1  0
 17 39  1  0
 18 40  1  0
 19 41  1  0
 20 42  1  0
 22 43  1  0
 22 44  1  0
 22 45  1  0
M  END
> <Name>
RMM2007 - Produto - (34)

$$$$
RMM2007 - Produto - R - (19)
  SciTegic12132405553D

 54 57  0  0  0  0            999 V2000
   -0.2132    4.1849   -3.4179 O   0  0
    1.1498    4.4473   -3.0281 C   0  0
    1.6206    3.3794   -2.0163 C   0  0  1  0  0  0
    2.9486    3.6441   -1.5304 O   0  0
    3.4805    2.6009   -0.6734 C   0  0  1  0  0  0
    4.7864    2.9724   -0.1767 O   0  0
    2.5567    2.3353    0.5573 C   0  0  2  0  0  0
    2.9746    1.1160    1.1879 N   0  0
    1.0532    2.2278    0.1460 C   0  0  1  0  0  0
    0.2246    2.2739    1.3060 O   0  0
    0.6382    3.3733   -0.8168 C   0  0  2  0  0  0
   -0.7211    3.2060   -1.2666 O   0  0
    2.8748    0.8136    2.5132 C   0  0
    2.4175    1.6283    3.3501 O   0  0
    3.2922   -0.5113    2.9986 C   0  0
    5.6801    3.2904   -1.1631 C   0  0
    6.6989    4.9715   -2.6101 C   0  0
    5.8004    4.6297   -1.5853 C   0  0
    6.4918    2.3004   -1.7525 C   0  0
    7.3905    2.6431   -2.7794 C   0  0
    7.4971    3.9808   -3.2244 C   0  0
    8.4321    4.3585   -4.3055 C   0  0
   -1.1351    4.1323   -2.3043 C   0  0  2  0  0  0
   -2.4395    3.6614   -2.8375 C   0  0
   -3.8488    1.8276   -3.6633 C   0  0
   -4.9261    2.7161   -3.8179 C   0  0
   -4.7623    4.0769   -3.5078 C   0  0
   -3.5301    4.5461   -3.0153 C   0  0
   -2.6124    2.2997   -3.1882 C   0  0
    1.7400    4.3304   -3.9370 H   0  0
    1.1256    5.4080   -2.5137 H   0  0
    1.7120    2.4111   -2.5083 H   0  0
    3.5932    1.7366   -1.3279 H   0  0
    2.6763    3.1197    1.3047 H   0  0
    3.3891    0.3819    0.6316 H   0  0
    0.8589    1.2566   -0.3090 H   0  0
    0.0217    1.3796    1.5901 H   0  0
    0.6100    4.3379   -0.3099 H   0  0
    3.2934   -0.5151    4.0886 H   0  0
    2.5974   -1.2675    2.6334 H   0  0
    4.2951   -0.7327    2.6334 H   0  0
    6.7770    6.0105   -2.9302 H   0  0
    5.1951    5.4057   -1.1167 H   0  0
    6.4243    1.2668   -1.4132 H   0  0
    8.0079    1.8676   -3.2329 H   0  0
    8.8336    3.4578   -4.7698 H   0  0
    7.9028    4.9481   -5.0541 H   0  0
    9.2491    4.9481   -3.8898 H   0  0
   -1.1581    5.1250   -1.8547 H   0  0
   -3.9720    0.7734   -3.9116 H   0  0
   -5.8877    2.3503   -4.1780 H   0  0
   -5.5922    4.7692   -3.6494 H   0  0
   -3.4195    5.6023   -2.7698 H   0  0
   -1.7796    1.6032   -3.0907 H   0  0
  1  2  1  0
  3  2  1  0
  3  4  1  0
  5  4  1  0
  5  6  1  0
  7  5  1  0
  7  8  1  0
  7  9  1  0
  9 10  1  0
  9 11  1  0
 11  3  1  0
 11 12  1  0
  8 13  1  0
 13 15  1  0
 13 14  2  0
  6 16  1  0
 17 18  1  0
 19 20  2  0
 20 21  1  0
 17 21  2  0
 18 16  2  0
 16 19  1  0
 21 22  1  0
 23  1  1  0
 23 12  1  0
 23 24  1  0
 25 26  1  0
 26 27  2  0
 27 28  1  0
 25 29  2  0
 28 24  2  0
 24 29  1  0
  2 30  1  0
  2 31  1  0
  3 32  1  0
  5 33  1  0
  7 34  1  0
  8 35  1  0
  9 36  1  0
 10 37  1  0
 11 38  1  0
 15 39  1  0
 15 40  1  0
 15 41  1  0
 17 42  1  0
 18 43  1  0
 19 44  1  0
 20 45  1  0
 22 46  1  0
 22 47  1  0
 22 48  1  0
 23 49  1  0
 25 50  1  0
 26 51  1  0
 27 52  1  0
 28 53  1  0
 29 54  1  0
M  END
> <Name>
RMM2007 - Produto - R - (19)

$$$$
RMM2007 - Produto - R - (20)
  SciTegic12132405553D

 54 57  0  0  0  0            999 V2000
   -0.5657    4.5250   -2.8692 O   0  0
    0.7721    4.9207   -2.5105 C   0  0
    1.2540    4.0633   -1.3247 C   0  0  1  0  0  0
    2.5674    4.4561   -0.8802 O   0  0
    3.1106    3.5810    0.1408 C   0  0  2  0  0  0
    3.4408    2.2831   -0.4199 O   0  0
    2.1629    3.4654    1.3834 C   0  0  2  0  0  0
    2.5856    2.3995    2.2491 N   0  0
    0.6732    3.2491    0.9754 C   0  0  1  0  0  0
   -0.1859    3.4300    2.1019 O   0  0
    0.2509    4.2254   -0.1548 C   0  0  2  0  0  0
   -1.0932    3.9331   -0.5817 O   0  0
    2.4942    2.3861    3.6089 C   0  0
    2.0802    3.3776    4.2564 O   0  0
    2.8439    1.1696    4.3579 C   0  0
    4.3955    2.3309   -1.4105 C   0  0
    6.7255    2.6039   -2.1053 C   0  0
    5.7568    2.5154   -1.0884 C   0  0
    4.0269    2.1829   -2.7651 C   0  0
    4.9974    2.2691   -3.7824 C   0  0
    6.3577    2.4878   -3.4664 C   0  0
    7.3561    2.5927   -4.5561 C   0  0
   -1.5190    4.6206   -1.7844 C   0  0  2  0  0  0
   -2.7788    3.9810   -2.2469 C   0  0
   -4.0847    1.9511   -2.7042 C   0  0
   -5.1851    2.7374   -3.0873 C   0  0
   -5.0842    4.1401   -3.0698 C   0  0
   -3.8916    4.7580   -2.6474 C   0  0
   -2.8858    2.5685   -2.3033 C   0  0
    1.3920    4.6791   -3.3739 H   0  0
    0.6921    5.9526   -2.1686 H   0  0
    1.3798    3.0272   -1.6390 H   0  0
    4.0664    4.0243    0.4201 H   0  0
    2.2551    4.3665    1.9896 H   0  0
    2.9941    1.5633    1.8566 H   0  0
    0.5161    2.2143    0.6709 H   0  0
   -0.4479    2.5727    2.4454 H   0  0
    0.1922    5.2603    0.1825 H   0  0
    2.7857    1.3721    5.4274 H   0  0
    2.1473    0.3717    4.1008 H   0  0
    3.8580    0.8636    4.1008 H   0  0
    7.7697    2.7637   -1.8365 H   0  0
    6.0627    2.5904   -0.0449 H   0  0
    2.9848    2.0006   -3.0274 H   0  0
    4.6928    2.1657   -4.8239 H   0  0
    7.6501    1.5933   -4.8769 H   0  0
    6.9202    3.1309   -5.3977 H   0  0
    8.2326    3.1309   -4.1952 H   0  0
   -1.6074    5.6765   -1.5288 H   0  0
   -4.1611    0.8639   -2.7181 H   0  0
   -6.1148    2.2603   -3.3973 H   0  0
   -5.9317    4.7493   -3.3842 H   0  0
   -3.8294    5.8461   -2.6302 H   0  0
   -2.0320    1.9467   -2.0338 H   0  0
  1  2  1  0
  3  2  1  0
  3  4  1  0
  5  4  1  0
  5  6  1  0
  5  7  1  0
  7  8  1  0
  7  9  1  0
  9 10  1  0
  9 11  1  0
 11  3  1  0
 11 12  1  0
  8 13  1  0
 13 15  1  0
 13 14  2  0
  6 16  1  0
 17 18  1  0
 19 20  2  0
 20 21  1  0
 17 21  2  0
 18 16  2  0
 16 19  1  0
 21 22  1  0
 12 23  1  0
  1 23  1  0
 23 24  1  0
 25 26  1  0
 26 27  2  0
 27 28  1  0
 25 29  2  0
 28 24  2  0
 24 29  1  0
  2 30  1  0
  2 31  1  0
  3 32  1  0
  5 33  1  0
  7 34  1  0
  8 35  1  0
  9 36  1  0
 10 37  1  0
 11 38  1  0
 15 39  1  0
 15 40  1  0
 15 41  1  0
 17 42  1  0
 18 43  1  0
 19 44  1  0
 20 45  1  0
 22 46  1  0
 22 47  1  0
 22 48  1  0
 23 49  1  0
 25 50  1  0
 26 51  1  0
 27 52  1  0
 28 53  1  0
 29 54  1  0
M  END
> <Name>
RMM2007 - Produto - R - (20)

$$$$
RMM2007 - Produto - R - (21)
  SciTegic12132405553D

 66 70  0  0  0  0            999 V2000
    0.1192    5.8714   -2.3352 O   0  0
    1.3558    6.1425   -1.6433 C   0  0
    1.5823    5.0932   -0.5298 C   0  0  1  0  0  0
    2.7727    5.3677    0.2397 O   0  0
    3.0531    4.3519    1.2356 C   0  0  1  0  0  0
    4.2422    4.7025    1.9804 O   0  0
    1.8653    4.2122    2.2425 C   0  0  2  0  0  0
    2.1084    3.1957    3.2282 N   0  0
    0.4856    4.0480    1.5206 C   0  0  1  0  0  0
   -0.6195    4.2618    2.4189 O   0  0
    0.3308    5.0963    0.3882 C   0  0  2  0  0  0
   -0.8503    4.8327   -0.4003 O   0  0
    2.2694    1.8596    3.0111 C   0  0
    2.2214    1.3493    1.8682 O   0  0
    2.5148    0.9520    4.1401 C   0  0
    5.4100    4.6064    1.2677 C   0  0
    7.1499    5.6409   -0.0999 C   0  0
    5.9393    5.7350    0.6121 C   0  0
    6.1115    3.3847    1.2129 C   0  0
    7.3180    3.2874    0.4921 C   0  0
    7.8532    4.4168   -0.1704 C   0  0
    9.1323    4.3461   -0.9146 C   0  0
   -1.0400    5.7916   -1.4714 C   0  0  2  0  0  0
   -2.1943    5.4434   -2.3456 C   0  0
   -3.6746    3.8054   -3.4252 C   0  0
   -4.3142    4.8355   -4.1371 C   0  0
   -3.9124    6.1687   -3.9468 C   0  0
   -2.8623    6.4686   -3.0589 C   0  0
   -2.6230    4.1062   -2.5368 C   0  0
   -0.9815    3.4774    3.4710 C   0  0
   -1.0173    4.0482    4.5854 O   0  0
   -1.3967    2.1263    3.3222 C   0  0
   -1.9012    1.6826    2.0765 C   0  0
   -2.3313    0.3579    1.8908 C   0  0
   -2.2886   -0.5789    2.9372 C   0  0
   -1.7688   -0.1368    4.2046 C   0  0
   -1.3192    1.2192    4.4100 C   0  0
    2.1397    6.0125   -2.3893 H   0  0
    1.2137    7.1117   -1.1651 H   0  0
    1.7951    4.1120   -0.9541 H   0  0
    3.2604    3.4408    0.6742 H   0  0
    1.8216    5.0986    2.8753 H   0  0
    2.1749    3.4546    4.2021 H   0  0
    0.3993    3.0199    1.1689 H   0  0
    0.1617    6.0831    0.8191 H   0  0
    2.4406   -0.0805    3.7989 H   0  0
    3.5126    1.1316    4.5404 H   0  0
    1.7732    1.1316    4.9185 H   0  0
    7.5464    6.5238   -0.6013 H   0  0
    5.4091    6.6864    0.6560 H   0  0
    5.7185    2.5099    1.7311 H   0  0
    7.8409    2.3320    0.4466 H   0  0
    9.9614    4.3004   -0.2086 H   0  0
    9.1392    3.4544   -1.5415 H   0  0
    9.2373    5.2317   -1.5415 H   0  0
   -1.1905    6.7401   -0.9560 H   0  0
   -3.9945    2.7724   -3.5622 H   0  0
   -5.1187    4.6014   -4.8342 H   0  0
   -4.4153    6.9702   -4.4879 H   0  0
   -2.5628    7.5077   -2.9220 H   0  0
   -2.1366    3.2969   -1.9923 H   0  0
   -1.9600    2.3783    1.2394 H   0  0
   -2.7058    0.0505    0.9145 H   0  0
   -2.6410   -1.5973    2.7740 H   0  0
   -1.7143   -0.8469    5.0298 H   0  0
   -0.9274    1.5527    5.3709 H   0  0
  1  2  1  0
  3  2  1  0
  3  4  1  0
  5  4  1  0
  5  6  1  0
  7  5  1  0
  7  8  1  0
  7  9  1  0
  9 10  1  0
  9 11  1  0
 11  3  1  0
 11 12  1  0
  8 13  1  0
 13 15  1  0
 13 14  2  0
  6 16  1  0
 17 18  1  0
 19 20  2  0
 20 21  1  0
 17 21  2  0
 18 16  2  0
 16 19  1  0
 21 22  1  0
 23  1  1  0
 23 12  1  0
 23 24  1  0
 25 26  1  0
 26 27  2  0
 27 28  1  0
 25 29  2  0
 28 24  2  0
 24 29  1  0
 10 30  1  0
 30 31  2  0
 30 32  1  0
 33 34  1  0
 34 35  2  0
 35 36  1  0
 36 37  2  0
 37 32  1  0
 33 32  2  0
  2 38  1  0
  2 39  1  0
  3 40  1  0
  5 41  1  0
  7 42  1  0
  8 43  1  0
  9 44  1  0
 11 45  1  0
 15 46  1  0
 15 47  1  0
 15 48  1  0
 17 49  1  0
 18 50  1  0
 19 51  1  0
 20 52  1  0
 22 53  1  0
 22 54  1  0
 22 55  1  0
 23 56  1  0
 25 57  1  0
 26 58  1  0
 27 59  1  0
 28 60  1  0
 29 61  1  0
 33 62  1  0
 34 63  1  0
 35 64  1  0
 36 65  1  0
 37 66  1  0
M  END
> <Name>
RMM2007 - Produto - R - (21)

$$$$
RMM2007 - Produto - R - (22)
  SciTegic12132405553D

 66 70  0  0  0  0            999 V2000
    2.9028    4.2690   -3.8368 O   0  0
    4.1110    4.6022   -3.1253 C   0  0
    4.3993    3.5336   -2.0464 C   0  0  1  0  0  0
    5.5864    3.8590   -1.2929 O   0  0
    5.9161    2.8896   -0.2693 C   0  0  2  0  0  0
    6.3248    1.6303   -0.8569 O   0  0
    4.7285    2.7014    0.7339 C   0  0  2  0  0  0
    5.0553    1.7809    1.7898 N   0  0
    3.3615    2.4426    0.0157 C   0  0  1  0  0  0
    2.2462    2.6098    0.9122 O   0  0
    3.1515    3.4727   -1.1241 C   0  0  2  0  0  0
    1.9900    3.1340   -1.9129 O   0  0
    5.1666    0.4230    1.7167 C   0  0
    4.9275   -0.2195    0.6670 O   0  0
    5.5921   -0.3427    2.8989 C   0  0
    7.5522    1.6338   -1.4737 C   0  0
    9.9930    1.5330   -1.3341 C   0  0
    8.7324    1.5603   -0.7073 C   0  0
    7.6475    1.6489   -2.8805 C   0  0
    8.9076    1.6131   -3.5091 C   0  0
   10.0964    1.5624   -2.7441 C   0  0
   11.4123    1.5412   -3.4258 C   0  0
    1.7425    4.0696   -2.9932 C   0  0  2  0  0  0
    0.6742    3.5929   -3.9090 C   0  0
   -0.5627    1.7950   -5.0352 C   0  0
   -1.2437    2.7436   -5.8191 C   0  0
   -0.9909    4.1141   -5.6366 C   0  0
   -0.0403    4.5339   -4.6887 C   0  0
    0.3883    2.2153   -4.0860 C   0  0
    1.8487    1.7800    1.9179 C   0  0
    1.6631    2.3239    3.0302 O   0  0
    1.5430    0.4066    1.7273 C   0  0
    1.6747   -0.4941    2.8098 C   0  0
    1.3746   -1.8589    2.6660 C   0  0
    0.9235   -2.3840    1.4435 C   0  0
    0.7872   -1.4711    0.3366 C   0  0
    1.0905   -0.0667    0.4683 C   0  0
    4.9079    4.5521   -3.8673 H   0  0
    3.8984    5.5424   -2.6166 H   0  0
    4.6525    2.5660   -2.4798 H   0  0
    6.8101    3.2752    0.2209 H   0  0
    4.5950    3.5995    1.3371 H   0  0
    5.2323    2.1401    2.7171 H   0  0
    3.3320    1.4067   -0.3223 H   0  0
    2.9299    4.4507   -0.6969 H   0  0
    5.5160   -1.4093    2.6876 H   0  0
    6.6251   -0.0930    3.1410 H   0  0
    4.9503   -0.0930    3.7438 H   0  0
   10.8950    1.4888   -0.7237 H   0  0
    8.6697    1.5242    0.3803 H   0  0
    6.7417    1.6885   -3.4856 H   0  0
    8.9634    1.6246   -4.5976 H   0  0
   12.2075    1.5284   -2.6804 H   0  0
   11.4842    0.6499   -4.0492 H   0  0
   11.5130    2.4297   -4.0492 H   0  0
    1.4837    4.9934   -2.4759 H   0  0
   -0.7721    0.7330   -5.1634 H   0  0
   -1.9663    2.4172   -6.5670 H   0  0
   -1.5319    4.8511   -6.2301 H   0  0
    0.1446    5.6000   -4.5569 H   0  0
    0.9067    1.4690   -3.4840 H   0  0
    2.0156   -0.1275    3.7780 H   0  0
    1.4944   -2.5245    3.5208 H   0  0
    0.6912   -3.4455    1.3581 H   0  0
    0.4456   -1.8529   -0.6255 H   0  0
    0.9798    0.6239   -0.3677 H   0  0
  1  2  1  0
  3  2  1  0
  3  4  1  0
  5  4  1  0
  5  6  1  0
  5  7  1  0
  7  8  1  0
  7  9  1  0
  9 10  1  0
  9 11  1  0
 11  3  1  0
 11 12  1  0
  8 13  1  0
 13 15  1  0
 13 14  2  0
  6 16  1  0
 17 18  1  0
 19 20  2  0
 20 21  1  0
 17 21  2  0
 18 16  2  0
 16 19  1  0
 21 22  1  0
 12 23  1  0
  1 23  1  0
 23 24  1  0
 25 26  1  0
 26 27  2  0
 27 28  1  0
 25 29  2  0
 28 24  2  0
 24 29  1  0
 10 30  1  0
 30 32  1  0
 33 34  2  0
 34 35  1  0
 35 36  2  0
 36 37  1  0
 32 33  1  0
 32 37  2  0
 30 31  2  0
  2 38  1  0
  2 39  1  0
  3 40  1  0
  5 41  1  0
  7 42  1  0
  8 43  1  0
  9 44  1  0
 11 45  1  0
 15 46  1  0
 15 47  1  0
 15 48  1  0
 17 49  1  0
 18 50  1  0
 19 51  1  0
 20 52  1  0
 22 53  1  0
 22 54  1  0
 22 55  1  0
 23 56  1  0
 25 57  1  0
 26 58  1  0
 27 59  1  0
 28 60  1  0
 29 61  1  0
 33 62  1  0
 34 63  1  0
 35 64  1  0
 36 65  1  0
 37 66  1  0
M  END
> <Name>
RMM2007 - Produto - R - (22)

$$$$
RMM2007 - Produto - S - (19)
  SciTegic12132405553D

 54 57  0  0  0  0            999 V2000
    0.3633    3.2025   -3.5138 O   0  0
    1.6467    3.3922   -2.8795 C   0  0
    1.8116    2.4361   -1.6776 C   0  0  1  0  0  0
    3.0236    2.7198   -0.9555 O   0  0
    3.2843    1.8316    0.1642 C   0  0  1  0  0  0
    4.4882    2.2304    0.8619 O   0  0
    2.1022    1.8640    1.1841 C   0  0  2  0  0  0
    2.3329    0.8784    2.2012 N   0  0
    0.7371    1.6363    0.4600 C   0  0  1  0  0  0
   -0.3544    1.8087    1.3627 O   0  0
    0.5893    2.6127   -0.7399 C   0  0  2  0  0  0
   -0.6199    2.3727   -1.4910 O   0  0
    1.9370    0.9578    3.5021 C   0  0
    1.3149    1.9524    3.9434 O   0  0
    2.2294   -0.1443    4.4348 C   0  0
    5.5847    2.3837    0.0542 C   0  0
    6.9258    3.8052   -1.4113 C   0  0
    5.8262    3.6312   -0.5546 C   0  0
    6.4827    1.3206   -0.1670 C   0  0
    7.5896    1.4952   -1.0199 C   0  0
    7.8189    2.7378   -1.6586 C   0  0
    8.9636    2.9469   -2.5740 C   0  0
   -0.7880    3.2593   -2.6301 C   0  0  1  0  0  0
   -1.2346    4.6402   -2.2678 C   0  0
   -1.2905    7.0541   -2.7176 C   0  0
   -2.0467    7.2690   -1.5527 C   0  0
   -2.4396    6.1720   -0.7670 C   0  0
   -2.0454    4.8682   -1.1265 C   0  0
   -0.8869    5.7536   -3.0706 C   0  0
    2.3833    3.1088   -3.6313 H   0  0
    1.6277    4.4108   -2.4920 H   0  0
    1.9391    1.4060   -2.0106 H   0  0
    3.4615    0.8519   -0.2796 H   0  0
    2.0663    2.8050    1.7330 H   0  0
    2.8320    0.0300    1.9751 H   0  0
    0.6422    0.5991    0.1385 H   0  0
   -0.0336    1.7580    2.2661 H   0  0
    0.4713    3.6352   -0.3812 H   0  0
    2.1347    0.2128    5.4603 H   0  0
    1.5248   -0.9588    4.2671 H   0  0
    3.2452   -0.5023    4.2671 H   0  0
    7.0867    4.7729   -1.8864 H   0  0
    5.1564    4.4691   -0.3610 H   0  0
    6.3205    0.3605    0.3230 H   0  0
    8.2736    0.6630   -1.1867 H   0  0
    9.8695    3.1124   -1.9909 H   0  0
    9.0920    2.0657   -3.2025 H   0  0
    8.7720    3.8166   -3.2025 H   0  0
   -1.6115    2.8464   -3.2128 H   0  0
   -1.0161    7.8989   -3.3493 H   0  0
   -2.3268    8.2810   -1.2602 H   0  0
   -3.0503    6.3324    0.1215 H   0  0
   -2.3712    4.0268   -0.5151 H   0  0
   -0.2983    5.6069   -3.9762 H   0  0
  1  2  1  0
  3  2  1  0
  3  4  1  0
  5  4  1  0
  5  6  1  0
  7  5  1  0
  7  8  1  0
  7  9  1  0
  9 10  1  0
  9 11  1  0
 11  3  1  0
 11 12  1  0
  8 13  1  0
 13 15  1  0
 13 14  2  0
  6 16  1  0
 17 18  1  0
 19 20  2  0
 20 21  1  0
 17 21  2  0
 18 16  2  0
 16 19  1  0
 21 22  1  0
 23  1  1  0
 23 12  1  0
 23 24  1  0
 25 26  1  0
 26 27  2  0
 27 28  1  0
 25 29  2  0
 28 24  2  0
 24 29  1  0
  2 30  1  0
  2 31  1  0
  3 32  1  0
  5 33  1  0
  7 34  1  0
  8 35  1  0
  9 36  1  0
 10 37  1  0
 11 38  1  0
 15 39  1  0
 15 40  1  0
 15 41  1  0
 17 42  1  0
 18 43  1  0
 19 44  1  0
 20 45  1  0
 22 46  1  0
 22 47  1  0
 22 48  1  0
 23 49  1  0
 25 50  1  0
 26 51  1  0
 27 52  1  0
 28 53  1  0
 29 54  1  0
M  END
> <Name>
RMM2007 - Produto - S - (19)

$$$$
RMM2007 - Produto - S - (20)
  SciTegic12132405553D

 54 57  0  0  0  0            999 V2000
    0.2286    3.7254   -4.3326 O   0  0
    1.4957    4.0043   -3.6985 C   0  0
    1.7280    3.0585   -2.4991 C   0  0  1  0  0  0
    2.9041    3.4223   -1.7455 O   0  0
    3.2148    2.5235   -0.6478 C   0  0  2  0  0  0
    3.6748    1.2330   -1.1311 O   0  0
    2.0126    2.3792    0.3410 C   0  0  2  0  0  0
    2.2759    1.3494    1.3069 N   0  0
    0.6873    2.0814   -0.4233 C   0  0  1  0  0  0
   -0.4326    2.1162    0.4607 O   0  0
    0.4860    3.1028   -1.5736 C   0  0  2  0  0  0
   -0.7065    2.8189   -2.3345 O   0  0
    1.8997    1.3634    2.6175 C   0  0
    1.3178    2.3506    3.1264 O   0  0
    2.1489    0.1928    3.4757 C   0  0
    4.8210    1.3027   -1.8875 C   0  0
    7.2281    1.6904   -2.0772 C   0  0
    6.0730    1.5522   -1.2858 C   0  0
    4.7511    1.1186   -3.2838 C   0  0
    5.9076    1.2579   -4.0749 C   0  0
    7.1541    1.5680   -3.4837 C   0  0
    8.3448    1.7725   -4.3411 C   0  0
   -0.9216    3.7264   -3.4468 C   0  0  1  0  0  0
   -1.4159    5.0835   -3.0524 C   0  0
   -1.6026    7.4967   -3.4835 C   0  0
   -2.3484    7.6590   -2.3038 C   0  0
   -2.6513    6.5427   -1.5048 C   0  0
   -2.1979    5.2645   -1.8838 C   0  0
   -1.1440    6.2192   -3.8535 C   0  0
    2.2502    3.7760   -4.4513 H   0  0
    1.4047    5.0179   -3.3081 H   0  0
    1.9497    2.0526   -2.8556 H   0  0
    4.0831    2.9654   -0.1592 H   0  0
    1.9056    3.2823    0.9419 H   0  0
    2.7838    0.5205    1.0332 H   0  0
    0.6843    1.0584   -0.7996 H   0  0
   -0.1234    2.1065    1.3695 H   0  0
    0.3005    4.1010   -1.1771 H   0  0
    2.0857    0.4898    4.5226 H   0  0
    1.4023   -0.5742    3.2699 H   0  0
    3.1433   -0.2035    3.2699 H   0  0
    8.1859    1.8933   -1.5980 H   0  0
    6.1483    1.6389   -0.2019 H   0  0
    3.7999    0.8677   -3.7532 H   0  0
    5.8372    1.1244   -5.1544 H   0  0
    9.2230    1.9234   -3.7133 H   0  0
    8.4944    0.8952   -4.9704 H   0  0
    8.1931    2.6495   -4.9704 H   0  0
   -1.7402    3.3047   -4.0301 H   0  0
   -1.3802    8.3602   -4.1104 H   0  0
   -2.6920    8.6504   -2.0085 H   0  0
   -3.2362    6.6679   -0.5936 H   0  0
   -2.4555    4.4049   -1.2650 H   0  0
   -0.5702    6.1078   -4.7735 H   0  0
  1  2  1  0
  3  2  1  0
  3  4  1  0
  5  4  1  0
  5  6  1  0
  7  5  1  0
  7  8  1  0
  7  9  1  0
  9 10  1  0
  9 11  1  0
 11  3  1  0
 11 12  1  0
  8 13  1  0
 13 15  1  0
 13 14  2  0
  6 16  1  0
 17 18  1  0
 19 20  2  0
 20 21  1  0
 17 21  2  0
 18 16  2  0
 16 19  1  0
 21 22  1  0
 23 12  1  0
 23  1  1  0
 23 24  1  0
 25 26  1  0
 26 27  2  0
 27 28  1  0
 25 29  2  0
 28 24  2  0
 24 29  1  0
  2 30  1  0
  2 31  1  0
  3 32  1  0
  5 33  1  0
  7 34  1  0
  8 35  1  0
  9 36  1  0
 10 37  1  0
 11 38  1  0
 15 39  1  0
 15 40  1  0
 15 41  1  0
 17 42  1  0
 18 43  1  0
 19 44  1  0
 20 45  1  0
 22 46  1  0
 22 47  1  0
 22 48  1  0
 23 49  1  0
 25 50  1  0
 26 51  1  0
 27 52  1  0
 28 53  1  0
 29 54  1  0
M  END
> <Name>
RMM2007 - Produto - S - (20)

$$$$
RMM2007 - Produto - S - (21)
  SciTegic12132405553D

 66 70  0  0  0  0            999 V2000
   -0.2371    5.0884   -2.3674 O   0  0
    1.0013    5.6519   -1.8813 C   0  0
    1.6106    4.7681   -0.7734 C   0  0  1  0  0  0
    2.7533    5.3985   -0.1595 O   0  0
    3.4256    4.5575    0.8128 C   0  0  1  0  0  0
    4.4887    5.2991    1.4500 O   0  0
    2.4461    4.0752    1.9366 C   0  0  2  0  0  0
    3.0627    3.1762    2.8739 N   0  0
    1.1005    3.5214    1.3609 C   0  0  1  0  0  0
    0.1071    3.3461    2.3894 O   0  0
    0.5286    4.5062    0.3055 C   0  0  2  0  0  0
   -0.6743    3.9868   -0.3027 O   0  0
    3.5861    1.9426    2.6159 C   0  0
    3.5909    1.4439    1.4664 O   0  0
    4.1835    1.1522    3.7025 C   0  0
    5.5037    5.7026    0.6220 C   0  0
    6.5483    7.4175   -0.7733 C   0  0
    5.4737    6.9788    0.0228 C   0  0
    6.6225    4.8713    0.4164 C   0  0
    7.6955    5.3069   -0.3838 C   0  0
    7.6717    6.5853   -0.9889 C   0  0
    8.7988    7.0639   -1.8234 C   0  0
   -1.2305    4.8348   -1.3421 C   0  0  1  0  0  0
   -1.9445    6.0538   -0.8409 C   0  0
   -3.3261    7.1615    0.8628 C   0  0
   -3.3307    8.3447    0.1048 C   0  0
   -2.6633    8.3870   -1.1303 C   0  0
   -1.9795    7.2497   -1.5996 C   0  0
   -2.6384    6.0253    0.3937 C   0  0
    0.1107    2.4255    3.3994 C   0  0
   -0.0531    2.8938    4.5495 O   0  0
    0.1832    1.0193    3.1957 C   0  0
   -0.2442    0.4644    1.9653 C   0  0
   -0.1933   -0.9193    1.7281 C   0  0
    0.2718   -1.8148    2.7047 C   0  0
    0.6951   -1.2602    3.9641 C   0  0
    0.6628    0.1601    4.2187 C   0  0
    1.6812    5.6293   -2.7329 H   0  0
    0.7255    6.6047   -1.4292 H   0  0
    2.0127    3.8502   -1.2021 H   0  0
    3.8602    3.7451    0.2304 H   0  0
    2.2292    4.9151    2.5966 H   0  0
    3.1383    3.4479    3.8438 H   0  0
    1.2617    2.5215    0.9582 H   0  0
    0.1929    5.4305    0.7757 H   0  0
    4.0650    0.0903    3.4869 H   0  0
    5.2440    1.3902    3.7842 H   0  0
    3.6843    1.3902    4.6417 H   0  0
    6.5103    8.4083   -1.2259 H   0  0
    4.6138    7.6309    0.1761 H   0  0
    6.6580    3.8852    0.8793 H   0  0
    8.5513    4.6492   -0.5360 H   0  0
    9.6079    7.4074   -1.1787 H   0  0
    9.1567    6.2489   -2.4526 H   0  0
    8.4610    7.8873   -2.4526 H   0  0
   -2.0132    4.2498   -1.8250 H   0  0
   -3.8560    7.1249    1.8146 H   0  0
   -3.8510    9.2284    0.4742 H   0  0
   -2.6761    9.3011   -1.7238 H   0  0
   -1.4708    7.2956   -2.5625 H   0  0
   -2.6431    5.1144    0.9923 H   0  0
   -0.6222    1.1194    1.1804 H   0  0
   -0.5222   -1.3071    0.7640 H   0  0
    0.3026   -2.8842    2.4960 H   0  0
    1.0491   -1.9331    4.7452 H   0  0
    0.9956    0.5775    5.1690 H   0  0
  1  2  1  0
  3  2  1  0
  3  4  1  0
  5  4  1  0
  5  6  1  0
  7  5  1  0
  7  8  1  0
  7  9  1  0
  9 10  1  0
  9 11  1  0
 11  3  1  0
 11 12  1  0
  8 13  1  0
 13 15  1  0
 13 14  2  0
  6 16  1  0
 17 18  1  0
 19 20  2  0
 20 21  1  0
 17 21  2  0
 18 16  2  0
 16 19  1  0
 21 22  1  0
 23  1  1  0
 23 12  1  0
 23 24  1  0
 25 26  1  0
 26 27  2  0
 27 28  1  0
 25 29  2  0
 28 24  2  0
 24 29  1  0
 10 30  1  0
 30 31  2  0
 30 32  1  0
 33 34  1  0
 34 35  2  0
 35 36  1  0
 36 37  2  0
 37 32  1  0
 33 32  2  0
  2 38  1  0
  2 39  1  0
  3 40  1  0
  5 41  1  0
  7 42  1  0
  8 43  1  0
  9 44  1  0
 11 45  1  0
 15 46  1  0
 15 47  1  0
 15 48  1  0
 17 49  1  0
 18 50  1  0
 19 51  1  0
 20 52  1  0
 22 53  1  0
 22 54  1  0
 22 55  1  0
 23 56  1  0
 25 57  1  0
 26 58  1  0
 27 59  1  0
 28 60  1  0
 29 61  1  0
 33 62  1  0
 34 63  1  0
 35 64  1  0
 36 65  1  0
 37 66  1  0
M  END
> <Name>
RMM2007 - Produto - S - (21)

$$$$
RMM2007 - Produto - S - (22)
  SciTegic12132405553D

 66 70  0  0  0  0            999 V2000
    3.0004    4.4819   -4.5220 O   0  0
    4.2635    4.6386   -3.8388 C   0  0
    4.4682    3.5352   -2.7805 C   0  0  1  0  0  0
    5.6160    3.8163   -1.9493 O   0  0
    5.9151    2.7879   -0.9719 C   0  0  2  0  0  0
    6.4934    1.6372   -1.6340 O   0  0
    4.6704    2.4150   -0.0918 C   0  0  2  0  0  0
    4.9590    1.3526    0.8354 N   0  0
    3.3583    2.2511   -0.9274 C   0  0  1  0  0  0
    2.1854    2.2309   -0.0946 O   0  0
    3.2076    3.4675   -1.8816 C   0  0  2  0  0  0
    2.0080    3.3567   -2.6754 O   0  0
    5.1669    0.0315    0.5671 C   0  0
    5.0112   -0.4571   -0.5759 O   0  0
    5.6223   -0.8658    1.6411 C   0  0
    7.7454    1.8681   -2.1452 C   0  0
   10.1576    2.0750   -1.8017 C   0  0
    8.8686    1.8278   -1.2946 C   0  0
    7.9301    2.1250   -3.5180 C   0  0
    9.2212    2.3581   -4.0295 C   0  0
   10.3503    2.3361   -3.1782 C   0  0
   11.7014    2.5862   -3.7348 C   0  0
    1.8372    4.4064   -3.6601 C   0  0  1  0  0  0
    1.3599    5.7133   -3.1070 C   0  0
   -0.0452    6.9594   -1.5197 C   0  0
    0.3694    8.1749   -2.0908 C   0  0
    1.2693    8.1694   -3.1702 C   0  0
    1.7562    6.9495   -3.6760 C   0  0
    0.4421    5.7392   -2.0276 C   0  0
    1.6911    1.2064    0.6587 C   0  0
    1.2401    1.5423    1.7774 O   0  0
    1.5440   -0.1378    0.2169 C   0  0
    1.6524   -1.1942    1.1527 C   0  0
    1.4712   -2.5358    0.7732 C   0  0
    1.1764   -2.8861   -0.5549 C   0  0
    1.0719   -1.8172   -1.5140 C   0  0
    1.2529   -0.4327   -1.1385 C   0  0
    5.0233    4.5012   -4.6082 H   0  0
    4.1872    5.5896   -3.3118 H   0  0
    4.6972    2.5859   -3.2647 H   0  0
    6.7097    3.1956   -0.3470 H   0  0
    4.4665    3.2014    0.6349 H   0  0
    5.0254    1.5657    1.8204 H   0  0
    3.3667    1.2861   -1.4341 H   0  0
    3.0510    4.3980   -1.3361 H   0  0
    5.4901   -1.9019    1.3295 H   0  0
    6.6763   -0.6800    1.8473 H   0  0
    5.0376   -0.6800    2.5421 H   0  0
   11.0116    2.0641   -1.1244 H   0  0
    8.7394    1.6035   -0.2358 H   0  0
    7.0702    2.1436   -4.1876 H   0  0
    9.3476    2.5573   -5.0937 H   0  0
   12.4119    2.7177   -2.9187 H   0  0
   12.0048    1.7372   -4.3474 H   0  0
   11.6809    3.4875   -4.3474 H   0  0
    1.0188    4.0884   -4.3060 H   0  0
   -0.7441    6.9629   -0.6833 H   0  0
   -0.0061    9.1197   -1.6976 H   0  0
    1.5897    9.1114   -3.6151 H   0  0
    2.4481    6.9623   -4.5181 H   0  0
    0.1049    4.8041   -1.5802 H   0  0
    1.8817   -0.9683    2.1941 H   0  0
    1.5612   -3.3206    1.5242 H   0  0
    1.0362   -3.9323   -0.8268 H   0  0
    0.8496   -2.0626   -2.5525 H   0  0
    1.1713    0.3755   -1.8653 H   0  0
  1  2  1  0
  3  2  1  0
  3  4  1  0
  5  4  1  0
  5  6  1  0
  7  5  1  0
  7  8  1  0
  7  9  1  0
  9 10  1  0
  9 11  1  0
 11  3  1  0
 11 12  1  0
  8 13  1  0
 13 15  1  0
 13 14  2  0
  6 16  1  0
 17 18  1  0
 19 20  2  0
 20 21  1  0
 17 21  2  0
 18 16  2  0
 16 19  1  0
 21 22  1  0
 23 12  1  0
 23  1  1  0
 23 24  1  0
 25 26  1  0
 26 27  2  0
 27 28  1  0
 25 29  2  0
 28 24  2  0
 24 29  1  0
 10 30  1  0
 30 32  1  0
 33 34  2  0
 34 35  1  0
 35 36  2  0
 36 37  1  0
 32 33  1  0
 32 37  2  0
 30 31  2  0
  2 38  1  0
  2 39  1  0
  3 40  1  0
  5 41  1  0
  7 42  1  0
  8 43  1  0
  9 44  1  0
 11 45  1  0
 15 46  1  0
 15 47  1  0
 15 48  1  0
 17 49  1  0
 18 50  1  0
 19 51  1  0
 20 52  1  0
 22 53  1  0
 22 54  1  0
 22 55  1  0
 23 56  1  0
 25 57  1  0
 26 58  1  0
 27 59  1  0
 28 60  1  0
 29 61  1  0
 33 62  1  0
 34 63  1  0
 35 64  1  0
 36 65  1  0
 37 66  1  0
M  END
> <Name>
RMM2007 - Produto - S - (22)

$$$$
RMM2007 - Subproduto - (25a)
  SciTegic12132405553D

 50 51  0  0  0  0            999 V2000
   -1.7038    0.9045   -3.6943 O   0  0
   -2.9998    1.1778   -3.1329 C   0  0
   -3.2601    0.1897   -1.9685 C   0  0  1  0  0  0
   -2.2361    0.3811   -0.9663 O   0  0
   -2.2611   -0.5670    0.1282 C   0  0  1  0  0  0
   -1.2012   -0.2519    1.0584 O   0  0
   -3.6348   -0.4959    0.8524 C   0  0  2  0  0  0
   -3.7054   -1.4648    1.9559 N   0  0
   -4.7847   -0.7312   -0.1717 C   0  0  2  0  0  0
   -4.7296   -2.0865   -0.6645 O   0  0
   -4.6764    0.3229   -1.3239 C   0  0  1  0  0  0
   -4.8359    1.6801   -0.8472 O   0  0
    0.0533   -0.4527    0.5381 C   0  0
    1.9428   -1.9326    0.0732 C   0  0
    0.6772   -1.7119    0.6484 C   0  0
    0.7367    0.5986   -0.1054 C   0  0
    2.0028    0.3791   -0.6793 C   0  0
    2.6065   -0.8991   -0.6284 C   0  0
    3.8989   -1.1528   -1.3092 C   0  0
   -5.6564   -2.6803   -1.4682 C   0  0
   -5.2605   -3.0288   -2.6040 O   0  0
   -6.9768   -2.9587   -1.0316 C   0  0
   -1.3713    1.8595   -5.0856 S   0  0
   -1.4351    3.4125   -4.6971 O   0  0
   -2.4520    1.5245   -6.2203 O   0  0
    0.2977    1.4447   -5.7019 C   0  0
   -2.9335    2.1831   -2.7167 H   0  0
   -3.7150    0.9628   -3.9269 H   0  0
   -3.1577   -0.8289   -2.3427 H   0  0
   -2.0478   -1.5527   -0.2854 H   0  0
   -3.7510    0.4713    1.3414 H   0  0
   -3.6815   -2.4029    1.5824 H   0  0
   -2.9186   -1.3286    2.5744 H   0  0
   -4.5645   -1.3286    2.4692 H   0  0
   -5.7692   -0.6819    0.2937 H   0  0
   -5.4989    0.2011   -2.0287 H   0  0
   -4.8363    1.6841    0.1128 H   0  0
    2.4124   -2.9112    0.1719 H   0  0
    0.1776   -2.5204    1.1820 H   0  0
    0.2828    1.5881   -0.1596 H   0  0
    2.5198    1.2056   -1.1670 H   0  0
    4.6787   -1.3059   -0.5632 H   0  0
    3.8126   -2.0429   -1.9325 H   0  0
    4.1555   -0.2962   -1.9325 H   0  0
   -7.0055   -2.9647    0.0580 H   0  0
   -7.6534   -2.1918   -1.4086 H   0  0
   -7.2862   -3.9334   -1.4086 H   0  0
    0.9661    1.2786   -4.8570 H   0  0
    0.2468    0.5403   -6.3081 H   0  0
    0.6761    2.2677   -6.3081 H   0  0
  1  2  1  0
  3  2  1  0
  3  4  1  0
  5  4  1  0
  5  6  1  0
  7  5  1  0
  7  8  1  0
  9  7  1  0
  9 10  1  0
 11  9  1  0
 11  3  1  0
 11 12  1  0
  6 13  1  0
 14 15  1  0
 16 17  2  0
 17 18  1  0
 14 18  2  0
 15 13  2  0
 13 16  1  0
 18 19  1  0
 10 20  1  0
 20 22  1  0
 20 21  2  0
  1 23  1  0
 23 24  2  0
 23 26  1  0
 23 25  2  0
  2 27  1  0
  2 28  1  0
  3 29  1  0
  5 30  1  0
  7 31  1  0
  8 32  1  0
  8 33  1  0
  8 34  1  0
  9 35  1  0
 11 36  1  0
 12 37  1  0
 14 38  1  0
 15 39  1  0
 16 40  1  0
 17 41  1  0
 19 42  1  0
 19 43  1  0
 19 44  1  0
 22 45  1  0
 22 46  1  0
 22 47  1  0
 26 48  1  0
 26 49  1  0
 26 50  1  0
M  END
> <Name>
RMM2007 - Subproduto - (25a)

$$$$
RMM2007 - Subproduto - (25b)
  SciTegic12132405553D

 49 50  0  0  0  0            999 V2000
   -3.1494   -4.7895   -4.7972 O   0  0
   -3.1597   -5.5169   -3.5577 C   0  0
   -2.5972   -6.9342   -3.8605 C   0  0  1  0  0  0
   -1.3859   -6.8725   -4.6524 O   0  0
   -0.1618   -6.5299   -3.9644 C   0  0  1  0  0  0
   -0.1999   -5.1457   -3.5367 O   0  0
    0.1161   -7.5623   -2.8285 C   0  0  2  0  0  0
    0.3633   -8.8425   -3.4296 N   0  0
   -1.1027   -7.6212   -1.8663 C   0  0  2  0  0  0
   -0.8984   -8.6233   -0.8690 O   0  0
   -2.4276   -7.8842   -2.6333 C   0  0  1  0  0  0
   -3.5399   -7.7898   -1.7457 O   0  0
    0.9734   -4.6355   -3.0451 C   0  0
    3.2873   -3.9289   -3.3746 C   0  0
    2.0817   -4.4310   -3.8916 C   0  0
    1.0690   -4.2829   -1.6829 C   0  0
    2.2713   -3.7590   -1.1690 C   0  0
    3.3964   -3.5806   -2.0094 C   0  0
    4.6583   -3.0316   -1.4655 C   0  0
   -3.3024   -3.0871   -4.6334 S   0  0
   -2.0458   -2.5215   -3.8166 O   0  0
   -4.6737   -2.7308   -3.8867 O   0  0
   -3.3045   -2.3771   -6.3169 C   0  0
   -2.5562   -5.0306   -2.7906 H   0  0
   -4.1858   -5.5891   -3.1890 H   0  0
   -3.3364   -7.4060   -4.5131 H   0  0
    0.6132   -6.6333   -4.7278 H   0  0
    0.9862   -7.2493   -2.2442 H   0  0
   -0.4088   -9.3992   -3.6110 H   0  0
   -1.1849   -6.6639   -1.3434 H   0  0
   -2.4077   -8.9129   -3.0043 H   0  0
   -4.3287   -7.9449   -2.3075 H   0  0
    4.0840   -3.8181   -4.0051 H   0  0
    2.0160   -4.6529   -4.8875 H   0  0
    0.2636   -4.4064   -1.0623 H   0  0
    2.3213   -3.5095   -0.1777 H   0  0
    5.0502   -3.7024   -0.7001 H   0  0
    5.4179   -2.9166   -2.2414 H   0  0
    4.4775   -2.0506   -1.0232 H   0  0
   -4.1559   -2.7648   -6.8763 H   0  0
   -2.3829   -2.6534   -6.8296 H   0  0
   -3.3737   -1.2915   -6.2564 H   0  0
    1.5747   -9.3202   -3.8191 C   0  0
    2.6342   -8.6844   -3.6060 O   0  0
    1.6306  -10.6047   -4.5317 C   0  0
   -0.9789   -8.2286    0.0024 H   0  0
    1.6661  -11.4199   -3.8089 H   0  0
    0.7444  -10.7121   -5.1572 H   0  0
    2.5227  -10.6347   -5.1572 H   0  0
  1  2  1  0
  3  2  1  0
  3  4  1  0
  5  4  1  0
  5  6  1  0
  7  5  1  0
  7  8  1  0
  9  7  1  0
  9 10  1  0
 11  9  1  0
 11  3  1  0
 11 12  1  0
  6 13  1  0
 14 15  1  0
 16 17  2  0
 17 18  1  0
 14 18  2  0
 15 13  2  0
 13 16  1  0
 18 19  1  0
  1 20  1  0
 20 21  2  0
 20 23  1  0
 20 22  2  0
  2 24  1  0
  2 25  1  0
  3 26  1  0
  5 27  1  0
  7 28  1  0
  8 29  1  0
  9 30  1  0
 11 31  1  0
 12 32  1  0
 14 33  1  0
 15 34  1  0
 16 35  1  0
 17 36  1  0
 19 37  1  0
 19 38  1  0
 19 39  1  0
 23 40  1  0
 23 41  1  0
 23 42  1  0
  8 43  1  0
 43 45  1  0
 43 44  2  0
 10 46  1  0
 45 47  1  0
 45 48  1  0
 45 49  1  0
M  END
> <Name>
RMM2007 - Subproduto - (25b)

$$$$
RMM2007 - Subproduto - (26a)
  SciTegic12132405553D

 45 46  0  0  0  0            999 V2000
   -1.9009   -2.9656   -2.0044 O   0  0
   -2.1385   -3.3707   -0.6460 C   0  0
   -2.2180   -2.1365    0.2982 C   0  0  1  0  0  0
   -3.0528   -1.0768   -0.2142 O   0  0
   -4.4846   -1.3038   -0.2076 C   0  0  2  0  0  0
   -5.1674   -0.1418   -0.7375 O   0  0
   -4.9930   -1.6161    1.2323 C   0  0  2  0  0  0
   -4.9588   -0.4127    2.0824 N   0  0
   -4.1535   -2.7651    1.8660 C   0  0  2  0  0  0
   -4.5334   -3.0058    3.2209 O   0  0
   -2.6304   -2.4681    1.7652 C   0  0  1  0  0  0
   -1.8700   -3.5558    2.2833 O   0  0
   -4.7635    0.1984   -2.0051 C   0  0
   -4.8979   -0.0913   -4.4264 C   0  0
   -5.3512   -0.4071   -3.1339 C   0  0
   -3.7513    1.1626   -2.1897 C   0  0
   -3.2954    1.4783   -3.4822 C   0  0
   -3.8531    0.8422   -4.6140 C   0  0
   -3.3649    1.1598   -5.9742 C   0  0
   -2.0816   -4.2762   -3.1078 S   0  0
   -3.6197   -4.7237   -3.1447 O   0  0
   -1.1639   -5.5055   -2.6441 O   0  0
   -1.5798   -3.7515   -4.7848 C   0  0
   -3.1202   -3.8441   -0.6602 H   0  0
   -1.2584   -3.9495   -0.3659 H   0  0
   -1.2179   -1.7031    0.2894 H   0  0
   -4.6684   -2.1268   -0.8983 H   0  0
   -6.0460   -1.8956    1.1989 H   0  0
   -4.9666   -0.6869    3.0545 H   0  0
   -4.1188    0.1133    1.8877 H   0  0
   -5.7675    0.1601    1.8877 H   0  0
   -4.3918   -3.7108    1.3792 H   0  0
   -4.5773   -3.9519    3.3777 H   0  0
   -2.3571   -1.6464    2.4271 H   0  0
   -1.8877   -3.5304    3.2428 H   0  0
   -5.3592   -0.5733   -5.2884 H   0  0
   -6.1619   -1.1244   -3.0063 H   0  0
   -3.3180    1.6678   -1.3265 H   0  0
   -2.5060    2.2194   -3.6073 H   0  0
   -3.1705    0.2341   -6.5159 H   0  0
   -4.1200    1.7397   -6.5050 H   0  0
   -2.4446    1.7397   -5.9038 H   0  0
   -1.3954   -4.6315   -5.4009 H   0  0
   -2.3750   -3.1550   -5.2320 H   0  0
   -0.6697   -3.1550   -4.7217 H   0  0
  1  2  1  0
  3  2  1  0
  3  4  1  0
  5  4  1  0
  5  6  1  0
  7  5  1  0
  7  8  1  0
  7  9  1  0
  9 10  1  0
  9 11  1  0
 11  3  1  0
 11 12  1  0
  6 13  1  0
 14 15  1  0
 16 17  2  0
 17 18  1  0
 14 18  2  0
 15 13  2  0
 13 16  1  0
 18 19  1  0
  1 20  1  0
 20 21  2  0
 20 23  1  0
 20 22  2  0
  2 24  1  0
  2 25  1  0
  3 26  1  0
  5 27  1  0
  7 28  1  0
  8 29  1  0
  8 30  1  0
  8 31  1  0
  9 32  1  0
 10 33  1  0
 11 34  1  0
 12 35  1  0
 14 36  1  0
 15 37  1  0
 16 38  1  0
 17 39  1  0
 19 40  1  0
 19 41  1  0
 19 42  1  0
 23 43  1  0
 23 44  1  0
 23 45  1  0
M  END
> <Name>
RMM2007 - Subproduto - (26a)

$$$$
RMM2007 - Subproduto - (35)
  SciTegic12132405553D

 45 46  0  0  0  0            999 V2000
   -2.0770   -2.4714   -3.1209 N   0  0
   -3.2700   -2.0944   -2.5143 C   0  0
   -3.4525   -2.8653   -1.1815 C   0  0  1  0  0  0
   -2.4003   -2.4872   -0.2662 O   0  0
   -2.3130   -3.2988    0.9331 C   0  0  1  0  0  0
   -1.2256   -2.8336    1.7698 O   0  0
   -3.6403   -3.2134    1.7423 C   0  0  2  0  0  0
   -3.6063   -4.1589    2.8245 N   0  0
   -4.8679   -3.4888    0.8178 C   0  0  1  0  0  0
   -6.0914   -3.2651    1.5188 O   0  0
   -4.8346   -2.6478   -0.4939 C   0  0  1  0  0  0
   -5.0537   -1.2988   -0.2002 N   0  0
   -4.1904   -3.9928    4.0447 C   0  0
   -4.8202   -2.9478    4.3330 O   0  0
   -4.1109   -5.0469    5.0692 C   0  0
   -0.0057   -2.8367    1.1409 C   0  0
    1.6552   -1.6999   -0.2433 C   0  0
    0.4306   -1.6888    0.4487 C   0  0
    0.8221   -3.9768    1.1810 C   0  0
    2.0494   -3.9866    0.4904 C   0  0
    2.4739   -2.8525   -0.2416 C   0  0
    3.7435   -2.8480   -1.0063 C   0  0
   -1.6948   -2.0264   -4.1277 N   0  0
   -1.3078   -1.5834   -5.1291 N   0  0
   -5.7364   -0.5888   -0.8229 N   0  0
   -6.4205    0.1180   -1.4394 N   0  0
   -3.1434   -1.0358   -2.2876 H   0  0
   -4.0472   -2.4139   -3.2085 H   0  0
   -3.3378   -3.9287   -1.3916 H   0  0
   -2.0706   -4.3086    0.6021 H   0  0
   -3.7396   -2.2421    2.2268 H   0  0
   -3.1183   -5.0365    2.7156 H   0  0
   -4.8976   -4.5497    0.5694 H   0  0
   -5.9285   -3.2949    2.4644 H   0  0
   -5.6642   -2.8613   -1.1680 H   0  0
   -4.1451   -4.5939    6.0600 H   0  0
   -4.9519   -5.7305    4.9531 H   0  0
   -3.1770   -5.5967    4.9531 H   0  0
    1.9723   -0.8087   -0.7849 H   0  0
   -0.1824   -0.7875    0.4487 H   0  0
    0.5119   -4.8542    1.7484 H   0  0
    2.6753   -4.8783    0.5227 H   0  0
    4.5850   -2.8451   -0.3134 H   0  0
    3.7928   -3.7378   -1.6339 H   0  0
    3.7866   -1.9579   -1.6339 H   0  0
  1  2  1  0
  3  2  1  0
  3  4  1  0
  5  4  1  0
  5  6  1  0
  7  5  1  0
  7  8  1  0
  7  9  1  0
  9 10  1  0
  9 11  1  0
 11  3  1  0
 11 12  1  0
  8 13  1  0
 13 15  1  0
 13 14  2  0
  6 16  1  0
 17 18  1  0
 19 20  2  0
 20 21  1  0
 17 21  2  0
 18 16  2  0
 16 19  1  0
 21 22  1  0
 23 24  2  0
 25 26  2  0
 12 25  2  0
  1 23  2  0
  2 27  1  0
  2 28  1  0
  3 29  1  0
  5 30  1  0
  7 31  1  0
  8 32  1  0
  9 33  1  0
 10 34  1  0
 11 35  1  0
 15 36  1  0
 15 37  1  0
 15 38  1  0
 17 39  1  0
 18 40  1  0
 19 41  1  0
 20 42  1  0
 22 43  1  0
 22 44  1  0
 22 45  1  0
M  END
> <Name>
RMM2007 - Subproduto - (35)

$$$$
RMM2007 - Subproduto - (36)
  SciTegic12132405553D

 62 64  0  0  0  0            999 V2000
   -3.8502    2.4209   -2.8192 N   0  0
   -4.8790    2.4344   -1.8840 C   0  0
   -4.8945    1.1380   -1.0297 C   0  0  1  0  0  0
   -3.6565    1.0767   -0.2844 O   0  0
   -3.4984   -0.1034    0.5295 C   0  0  2  0  0  0
   -3.4786   -1.3090   -0.2701 O   0  0
   -4.6226   -0.1516    1.6108 C   0  0  2  0  0  0
   -4.4482   -1.2484    2.5233 N   0  0
   -6.0546   -0.0323    0.9982 C   0  0  1  0  0  0
   -7.0349    0.2865    2.0101 O   0  0
   -6.1315    1.0961   -0.0761 C   0  0  2  0  0  0
   -7.4168    1.1215   -0.7467 O   0  0
   -4.5861   -2.5838    2.2810 C   0  0
   -5.0080   -3.0427    1.1923 O   0  0
   -4.2194   -3.5484    3.3302 C   0  0
   -2.3670   -1.5104   -1.0489 C   0  0
   -1.3402   -1.6573   -3.2645 C   0  0
   -2.4591   -1.3967   -2.4513 C   0  0
   -1.1420   -1.9088   -0.4739 C   0  0
   -0.0218   -2.1686   -1.2846 C   0  0
   -0.1081   -2.0430   -2.6907 C   0  0
    1.0548   -2.3011   -3.5704 C   0  0
   -7.4713   -0.5122    3.0298 C   0  0
   -7.2439   -0.1163    4.1963 O   0  0
   -8.2295   -1.6857    2.7985 C   0  0
   -8.9975   -1.8162    1.6171 C   0  0
   -9.7325   -2.9875    1.3614 C   0  0
   -9.7107   -4.0459    2.2879 C   0  0
   -8.9678   -3.9261    3.4763 C   0  0
   -8.2374   -2.7508    3.7330 C   0  0
   -3.7137    3.2608   -3.6153 N   0  0
   -3.5848    4.1020   -4.4061 N   0  0
   -7.7736   -0.0260   -1.9923 S   0  0
   -7.4448   -1.5352   -1.5687 O   0  0
   -6.9905    0.3392   -3.3424 O   0  0
   -9.5624    0.0930   -2.3424 C   0  0
   -4.6362    3.2717   -1.2298 H   0  0
   -5.7879    2.4581   -2.4851 H   0  0
   -4.9067    0.2485   -1.6595 H   0  0
   -2.4954   -0.0447    0.9522 H   0  0
   -4.5037    0.6776    2.3082 H   0  0
   -4.1894   -1.0509    3.4794 H   0  0
   -6.3297   -1.0067    0.5943 H   0  0
   -6.1575    2.0635    0.4254 H   0  0
   -4.3511   -4.5627    2.9533 H   0  0
   -3.1776   -3.3985    3.6134 H   0  0
   -4.8579   -3.3985    4.2008 H   0  0
   -1.4286   -1.5596   -4.3465 H   0  0
   -3.4033   -1.1048   -2.9109 H   0  0
   -1.0602   -2.0170    0.6076 H   0  0
    0.9179   -2.4688   -0.8210 H   0  0
    1.9361   -2.4967   -2.9595 H   0  0
    0.8494   -3.1671   -4.1996 H   0  0
    1.2350   -1.4294   -4.1996 H   0  0
   -9.0232   -1.0019    0.8929 H   0  0
  -10.3184   -3.0748    0.4463 H   0  0
  -10.2697   -4.9594    2.0848 H   0  0
   -8.9581   -4.7432    4.1977 H   0  0
   -7.6739   -2.6650    4.6621 H   0  0
  -10.1147    0.1297   -1.4034 H   0  0
   -9.7609    0.9981   -2.9164 H   0  0
   -9.8790   -0.7779   -2.9164 H   0  0
  1  2  1  0
  3  2  1  0
  3  4  1  0
  5  4  1  0
  5  6  1  0
  7  5  1  0
  7  8  1  0
  7  9  1  0
  9 10  1  0
  9 11  1  0
 11  3  1  0
 11 12  1  0
  8 13  1  0
 13 15  1  0
 13 14  2  0
  6 16  1  0
 17 18  1  0
 19 20  2  0
 20 21  1  0
 17 21  2  0
 18 16  2  0
 16 19  1  0
 21 22  1  0
 10 23  1  0
 23 25  1  0
 26 27  2  0
 27 28  1  0
 28 29  2  0
 29 30  1  0
 25 26  1  0
 25 30  2  0
 23 24  2  0
 31 32  2  0
 12 33  1  0
 33 36  1  0
 33 34  2  0
 33 35  2  0
  1 31  2  0
  2 37  1  0
  2 38  1  0
  3 39  1  0
  5 40  1  0
  7 41  1  0
  8 42  1  0
  9 43  1  0
 11 44  1  0
 15 45  1  0
 15 46  1  0
 15 47  1  0
 17 48  1  0
 18 49  1  0
 19 50  1  0
 20 51  1  0
 22 52  1  0
 22 53  1  0
 22 54  1  0
 26 55  1  0
 27 56  1  0
 28 57  1  0
 29 58  1  0
 30 59  1  0
 36 60  1  0
 36 61  1  0
 36 62  1  0
M  END
> <Name>
RMM2007 - Subproduto - (36)

$$$$
RMM2007 - Subproduto - (37)
  SciTegic12132405553D

 56 58  0  0  0  0            999 V2000
   -3.8260    2.2170   -3.0620 N   0  0
   -5.0768    2.4280   -2.4910 C   0  0
   -5.2943    1.4557   -1.3003 C   0  0  1  0  0  0
   -4.2896    1.7368   -0.2983 O   0  0
   -4.2935    0.8614    0.8515 C   0  0  2  0  0  0
   -3.8802   -0.4712    0.4746 O   0  0
   -5.6783    0.8669    1.5709 C   0  0  2  0  0  0
   -5.6986    0.0352    2.7441 N   0  0
   -6.8570    0.6617    0.5715 C   0  0  1  0  0  0
   -8.1182    0.9941    1.1823 O   0  0
   -6.7033    1.6042   -0.6574 C   0  0  2  0  0  0
   -7.7339    1.3283   -1.6067 O   0  0
   -5.6808   -1.3274    2.8220 C   0  0
   -5.7781   -2.0612    1.8112 O   0  0
   -5.5240   -1.9911    4.1293 C   0  0
   -2.5412   -0.5904    0.2034 C   0  0
   -0.7188   -0.8790   -1.3977 C   0  0
   -2.0906   -0.7086   -1.1261 C   0  0
   -1.6047   -0.6337    1.2565 C   0  0
   -0.2349   -0.7826    0.9838 C   0  0
    0.2250   -0.9229   -0.3447 C   0  0
    1.6644   -1.1297   -0.6308 C   0  0
   -8.8533    0.2896    2.0903 C   0  0
   -9.3367    0.9642    3.0280 O   0  0
   -9.1997   -1.0778    1.9448 C   0  0
   -9.3317   -1.6556    0.6598 C   0  0
   -9.6980   -3.0055    0.5103 C   0  0
   -9.9535   -3.7951    1.6447 C   0  0
   -9.8325   -3.2362    2.9288 C   0  0
   -9.4570   -1.8876    3.0780 C   0  0
   -3.3582    2.8900   -3.8893 N   0  0
   -2.8774    3.5562   -4.7103 N   0  0
   -5.0347    3.4458   -2.1032 H   0  0
   -5.7859    2.1739   -3.2789 H   0  0
   -5.1573    0.4270   -1.6336 H   0  0
   -3.5057    1.2293    1.5089 H   0  0
   -5.8483    1.8209    2.0701 H   0  0
   -5.7301    0.4755    3.6525 H   0  0
   -6.9078   -0.3927    0.2999 H   0  0
   -6.8743    2.6445   -0.3809 H   0  0
   -8.5460    1.1110   -1.1433 H   0  0
   -5.5405   -3.0723    3.9921 H   0  0
   -4.5742   -1.6958    4.5751 H   0  0
   -6.3415   -1.6958    4.7870 H   0  0
   -0.3850   -0.9776   -2.4307 H   0  0
   -2.8059   -0.6681   -1.9476 H   0  0
   -1.9424   -0.5514    2.2896 H   0  0
    0.4767   -0.7892    1.8095 H   0  0
    2.2136   -1.2086    0.3075 H   0  0
    1.7925   -2.0472   -1.2051 H   0  0
    2.0456   -0.2853   -1.2051 H   0  0
   -9.1483   -1.0515   -0.2288 H   0  0
   -9.7840   -3.4402   -0.4856 H   0  0
  -10.2451   -4.8390    1.5289 H   0  0
  -10.0298   -3.8485    3.8087 H   0  0
   -9.3648   -1.4669    4.0793 H   0  0
  1  2  1  0
  3  2  1  0
  3  4  1  0
  5  4  1  0
  5  6  1  0
  7  5  1  0
  7  8  1  0
  7  9  1  0
  9 10  1  0
  9 11  1  0
 11  3  1  0
 11 12  1  0
  8 13  1  0
 13 15  1  0
 13 14  2  0
  6 16  1  0
 17 18  1  0
 19 20  2  0
 20 21  1  0
 17 21  2  0
 18 16  2  0
 16 19  1  0
 21 22  1  0
 10 23  1  0
 23 25  1  0
 26 27  2  0
 27 28  1  0
 28 29  2  0
 29 30  1  0
 25 26  1  0
 25 30  2  0
 23 24  2  0
 31 32  2  0
  1 31  2  0
  2 33  1  0
  2 34  1  0
  3 35  1  0
  5 36  1  0
  7 37  1  0
  8 38  1  0
  9 39  1  0
 11 40  1  0
 12 41  1  0
 15 42  1  0
 15 43  1  0
 15 44  1  0
 17 45  1  0
 18 46  1  0
 19 47  1  0
 20 48  1  0
 22 49  1  0
 22 50  1  0
 22 51  1  0
 26 52  1  0
 27 53  1  0
 28 54  1  0
 29 55  1  0
 30 56  1  0
M  END
> <Name>
RMM2007 - Subproduto - (37)

$$$$
RMM2007 - Subproduto - (38)
  SciTegic12132405553D

 44 45  0  0  0  0            999 V2000
   -1.1712   -1.5225    3.0229 N   0  0
   -2.4234   -1.6981    3.6008 C   0  0
   -3.0563   -0.3156    3.9423 C   0  0  1  0  0  0
   -2.9701    0.6303    2.8503 O   0  0
   -3.8243    0.3688    1.7070 C   0  0  2  0  0  0
   -3.5920    1.3567    0.6766 O   0  0
   -5.3182    0.3906    2.1356 C   0  0  2  0  0  0
   -5.6918    1.7281    2.5020 N   0  0
   -5.5382   -0.6069    3.3156 C   0  0  2  0  0  0
   -6.8699   -0.5319    3.8248 O   0  0
   -4.5222   -0.3803    4.4688 C   0  0  1  0  0  0
   -4.6779   -1.3848    5.4697 O   0  0
   -6.8902    2.3373    2.2837 C   0  0
   -7.0041    3.5063    2.7178 O   0  0
   -8.0416    1.7232    1.5868 C   0  0
   -2.2980    1.3538    0.2205 C   0  0
   -0.5477    0.4270   -1.2073 C   0  0
   -1.8903    0.4567   -0.7870 C   0  0
   -1.3621    2.2518    0.7693 C   0  0
   -0.0206    2.2247    0.3470 C   0  0
    0.4057    1.3011   -0.6360 C   0  0
    1.8207    1.2612   -1.0669 C   0  0
   -0.5152   -2.3955    2.6176 N   0  0
    0.1417   -3.2640    2.2130 N   0  0
   -3.0215   -2.1710    2.8218 H   0  0
   -2.2241   -2.2283    4.5321 H   0  0
   -2.4191    0.1123    4.7162 H   0  0
   -3.5159   -0.5930    1.2972 H   0  0
   -5.9858    0.1548    1.3068 H   0  0
   -5.0233    2.3184    2.9760 H   0  0
   -5.4630   -1.6263    2.9369 H   0  0
   -6.8461   -0.5333    4.7845 H   0  0
   -4.7545    0.5401    5.0045 H   0  0
   -4.6156   -0.9826    6.3392 H   0  0
   -8.7516    1.3446    2.3222 H   0  0
   -8.5296    2.4716    0.9624 H   0  0
   -7.6921    0.9010    0.9624 H   0  0
   -0.2440   -0.2781   -1.9810 H   0  0
   -2.6162   -0.2166   -1.2429 H   0  0
   -1.6775    2.9714    1.5248 H   0  0
    0.6927    2.9235    0.7839 H   0  0
    2.4673    1.2429   -0.1896 H   0  0
    1.9935    0.3660   -1.6643 H   0  0
    2.0437    2.1452   -1.6643 H   0  0
  1  2  1  0
  3  2  1  0
  3  4  1  0
  5  4  1  0
  5  6  1  0
  7  5  1  0
  7  8  1  0
  7  9  1  0
  9 10  1  0
  9 11  1  0
 11  3  1  0
 11 12  1  0
  8 13  1  0
 13 15  1  0
 13 14  2  0
  6 16  1  0
 17 18  1  0
 19 20  2  0
 20 21  1  0
 17 21  2  0
 18 16  2  0
 16 19  1  0
 21 22  1  0
 23 24  2  0
  1 23  2  0
  2 25  1  0
  2 26  1  0
  3 27  1  0
  5 28  1  0
  7 29  1  0
  8 30  1  0
  9 31  1  0
 10 32  1  0
 11 33  1  0
 12 34  1  0
 15 35  1  0
 15 36  1  0
 15 37  1  0
 17 38  1  0
 18 39  1  0
 19 40  1  0
 20 41  1  0
 22 42  1  0
 22 43  1  0
 22 44  1  0
M  END
> <Name>
RMM2007 - Subproduto - (38)

$$$$
RMM2007 - Subproduto - (39)
  SciTegic12132405553D

 50 51  0  0  0  0            999 V2000
   -3.3739    2.2845   -2.3777 N   0  0
   -4.5711    2.5075   -1.7077 C   0  0
   -4.7938    1.4183   -0.6248 C   0  0  1  0  0  0
   -3.7249    1.5267    0.3439 O   0  0
   -3.7565    0.5617    1.4226 C   0  0  2  0  0  0
   -3.5687   -0.8006    0.9638 O   0  0
   -5.0836    0.6753    2.2274 C   0  0  2  0  0  0
   -5.1260   -0.3518    3.2262 N   0  0
   -6.2973    0.5462    1.2651 C   0  0  1  0  0  0
   -7.5182    0.7774    1.9629 O   0  0
   -6.1817    1.5453    0.0755 C   0  0  2  0  0  0
   -7.3209    1.5224   -0.8152 O   0  0
   -5.6543   -0.2413    4.4738 C   0  0
   -6.1752    0.8231    4.8800 O   0  0
   -5.6404   -1.3964    5.3836 C   0  0
   -2.3810   -1.0412    0.3262 C   0  0
    0.0502   -1.3065    0.3521 C   0  0
   -1.1577   -1.0589    1.0290 C   0  0
   -2.3860   -1.3233   -1.0541 C   0  0
   -1.1788   -1.5712   -1.7332 C   0  0
    0.0537   -1.5611   -1.0392 C   0  0
    1.3152   -1.8174   -1.7729 C   0  0
   -2.9608    2.9914   -3.2060 N   0  0
   -2.5452    3.6960   -4.0305 N   0  0
   -7.6289    0.1213   -1.7734 S   0  0
   -7.8872   -1.1809   -0.8762 O   0  0
   -6.4454   -0.1431   -2.8208 O   0  0
   -9.1555    0.4578   -2.7165 C   0  0
   -4.4329    3.4671   -1.2096 H   0  0
   -5.3394    2.3963   -2.4729 H   0  0
   -4.7214    0.4238   -1.0649 H   0  0
   -2.8674    0.7895    2.0106 H   0  0
   -5.1356    1.6068    2.7911 H   0  0
   -4.7371   -1.2624    3.0269 H   0  0
   -6.3793   -0.4809    0.9094 H   0  0
   -7.3568    0.7469    2.9088 H   0  0
   -6.3002    2.5681    0.4331 H   0  0
   -5.6446   -1.0460    6.4158 H   0  0
   -6.5231   -2.0104    5.2048 H   0  0
   -4.7433   -1.9890    5.2048 H   0  0
    0.9876   -1.3009    0.9082 H   0  0
   -1.1457   -0.8799    2.1042 H   0  0
   -3.3291   -1.3499   -1.5999 H   0  0
   -1.1986   -1.7724   -2.8043 H   0  0
    2.1232   -1.9816   -1.0600 H   0  0
    1.1980   -2.7018   -2.3992 H   0  0
    1.5523   -0.9574   -2.3992 H   0  0
   -9.9777    0.6390   -2.0243 H   0  0
   -9.0085    1.3367   -3.3442 H   0  0
   -9.3916   -0.4015   -3.3442 H   0  0
  1  2  1  0
  3  2  1  0
  3  4  1  0
  5  4  1  0
  5  6  1  0
  5  7  1  0
  7  8  1  0
  7  9  1  0
  9 10  1  0
  9 11  1  0
 11  3  1  0
 11 12  1  0
  8 13  1  0
 13 15  1  0
 13 14  2  0
  6 16  1  0
 17 18  1  0
 19 20  2  0
 20 21  1  0
 17 21  2  0
 18 16  2  0
 16 19  1  0
 21 22  1  0
 23 24  2  0
 12 25  1  0
 25 28  1  0
 25 26  2  0
 25 27  2  0
  1 23  2  0
  2 29  1  0
  2 30  1  0
  3 31  1  0
  5 32  1  0
  7 33  1  0
  8 34  1  0
  9 35  1  0
 10 36  1  0
 11 37  1  0
 15 38  1  0
 15 39  1  0
 15 40  1  0
 17 41  1  0
 18 42  1  0
 19 43  1  0
 20 44  1  0
 22 45  1  0
 22 46  1  0
 22 47  1  0
 28 48  1  0
 28 49  1  0
 28 50  1  0
M  END
> <Name>
RMM2007 - Subproduto - (39)

$$$$
RCF2009 - Intermediário - (3)
  SciTegic12132405553D

 43 43  0  0  0  0            999 V2000
    4.4505   -5.0466    0.1426 O   0  0
    4.1476   -4.1279    1.2043 C   0  0
    3.6941   -4.8928    2.4881 C   0  0  1  0  0  0
    4.6054   -4.6064    3.5773 O   0  0
    4.3415   -5.3303    4.8005 C   0  0  1  0  0  0
    5.6530   -4.7607    6.0967 Br  0  0
    2.9097   -5.0622    5.3380 C   0  0  2  0  0  0
    2.6455   -5.9191    6.4648 O   0  0
    1.8742   -5.3517    4.2162 C   0  0  1  0  0  0
    0.5527   -5.0540    4.7030 O   0  0
    2.2344   -4.5543    2.9258 C   0  0  1  0  0  0
    2.1455   -3.1448    3.2011 O   0  0
    2.3532   -5.6004    7.7636 C   0  0
    2.1699   -6.5618    8.5434 O   0  0
    2.2585   -4.2242    8.2867 C   0  0
   -0.6332   -5.4004    4.1137 C   0  0
   -1.9040   -5.0738    4.7734 C   0  0
   -0.6658   -6.0162    3.0222 O   0  0
    1.3561   -2.2068    2.6052 C   0  0
    1.4868   -0.8057    3.0188 C   0  0
    0.5296   -2.5110    1.7143 O   0  0
    5.6084   -5.1687   -0.5681 C   0  0
    5.6657   -6.1867   -1.6248 C   0  0
    6.6014   -4.4373   -0.3457 O   0  0
    5.0925   -3.6314    1.4252 H   0  0
    3.2990   -3.5480    0.8413 H   0  0
    3.7672   -5.9641    2.3006 H   0  0
    4.2483   -6.3418    4.4051 H   0  0
    2.8149   -4.0460    5.7206 H   0  0
    1.8175   -6.4126    3.9723 H   0  0
    1.5186   -4.7482    2.1269 H   0  0
    2.2602   -4.2488    9.3764 H   0  0
    3.1105   -3.6424    7.9350 H   0  0
    1.3348   -3.7647    7.9350 H   0  0
   -1.7713   -5.1079    5.8547 H   0  0
   -2.2204   -4.0736    4.4775 H   0  0
   -2.6635   -5.7975    4.4775 H   0  0
    1.4923   -0.7472    4.1072 H   0  0
    2.4188   -0.3970    2.6283 H   0  0
    0.6465   -0.2317    2.6283 H   0  0
    5.6413   -7.1792   -1.1749 H   0  0
    4.8104   -6.0682   -2.2901 H   0  0
    6.5878   -6.0682   -2.1938 H   0  0
  1  2  1  0
  3  2  1  0
  3  4  1  0
  4  5  1  0
  5  6  1  0
  5  7  1  0
  7  8  1  0
  7  9  1  0
  9 10  1  0
  9 11  1  0
  3 11  1  0
 11 12  1  0
  8 13  1  0
 13 15  1  0
 13 14  2  0
 10 16  1  0
 16 17  1  0
 16 18  2  0
 12 19  1  0
 19 20  1  0
  1 22  1  0
 22 23  1  0
 22 24  2  0
 19 21  2  0
  2 25  1  0
  2 26  1  0
  3 27  1  0
  5 28  1  0
  7 29  1  0
  9 30  1  0
 11 31  1  0
 15 32  1  0
 15 33  1  0
 15 34  1  0
 17 35  1  0
 17 36  1  0
 17 37  1  0
 20 38  1  0
 20 39  1  0
 20 40  1  0
 23 41  1  0
 23 42  1  0
 23 43  1  0
M  END
> <Name>
RCF2009 - Intermediário - (3)

$$$$
RCF2009 - Intermediário - (5)
  SciTegic12132405553D

 56 57  0  0  0  0            999 V2000
   20.8938    0.9565    1.3082 O   0  0
   20.2657    1.3944    2.5242 C   0  0
   20.2950    0.2662    3.5969 C   0  0  1  0  0  0
   21.5488    0.3515    4.3199 O   0  0
   21.7568   -0.6519    5.3452 C   0  0  1  0  0  0
   22.9778   -0.3786    6.0635 O   0  0
   20.6123   -0.6509    6.3938 C   0  0  2  0  0  0
   20.8107   -1.7830    7.2661 O   0  0
   19.2431   -0.7693    5.6711 C   0  0  1  0  0  0
   18.1757   -0.7331    6.6323 O   0  0
   19.0910    0.3362    4.5851 C   0  0  1  0  0  0
   19.0547    1.6334    5.2059 O   0  0
   21.0278   -1.8308    8.6156 C   0  0
   21.3644   -2.9413    9.0869 O   0  0
   20.8629   -0.6766    9.5148 C   0  0
   16.8887   -1.1524    6.4355 C   0  0
   15.9310   -1.0817    7.5453 C   0  0
   16.5121   -1.6181    5.3335 O   0  0
   18.0748    2.5796    5.1200 C   0  0
   18.2721    3.8698    5.7911 C   0  0
   17.0161    2.3805    4.4796 O   0  0
   21.0580    1.6891    0.1654 C   0  0
   21.6037    1.0204   -1.0259 C   0  0
   20.7634    2.9075    0.1260 O   0  0
   24.1135   -0.6046    5.3380 C   0  0
   24.7182    0.4432    4.6183 C   0  0
   24.7046   -1.8829    5.3315 C   0  0
   25.8689   -2.1217    4.5784 C   0  0
   26.4660   -1.0843    3.8196 C   0  0
   25.8822    0.2043    3.8657 C   0  0
   27.6128   -1.3055    3.0187 C   0  0
   28.1652   -2.4250    2.9219 O   0  0
   28.0182   -0.5376    2.4787 H   0  0
   20.8863    2.2151    2.8839 H   0  0
   19.2247    1.5751    2.2562 H   0  0
   20.2795   -0.7097    3.1116 H   0  0
   21.8536   -1.5909    4.8003 H   0  0
   20.6309    0.2343    7.0295 H   0  0
   19.1268   -1.7485    5.2066 H   0  0
   18.1369    0.2483    4.0654 H   0  0
   20.9109   -1.0131   10.5505 H   0  0
   21.6588    0.0448    9.3298 H   0  0
   19.8968   -0.2070    9.3298 H   0  0
   15.6616   -2.0907    7.8575 H   0  0
   16.3839   -0.5510    8.3827 H   0  0
   15.0363   -0.5510    7.2199 H   0  0
   18.2499    3.7246    6.8712 H   0  0
   19.2362    4.2869    5.5003 H   0  0
   17.4767    4.5560    5.5003 H   0  0
   21.5439   -0.0601   -0.8955 H   0  0
   21.0266    1.3130   -1.9031 H   0  0
   22.6448    1.3130   -1.1618 H   0  0
   24.2837    1.4425    4.6439 H   0  0
   24.2590   -2.6909    5.9118 H   0  0
   26.3117   -3.1177    4.5829 H   0  0
   26.3364    1.0263    3.3124 H   0  0
  1  2  1  0
  3  2  1  0
  3  4  1  0
  4  5  1  0
  5  6  1  0
  5  7  1  0
  7  8  1  0
  7  9  1  0
  9 10  1  0
  9 11  1  0
  3 11  1  0
 11 12  1  0
  8 13  1  0
 13 15  1  0
 13 14  2  0
 10 16  1  0
 16 17  1  0
 16 18  2  0
 12 19  1  0
 19 20  1  0
  1 22  1  0
 22 23  1  0
 22 24  2  0
 19 21  2  0
  6 25  1  0
 27 28  1  0
 28 29  2  0
 29 30  1  0
 26 30  2  0
 26 25  1  0
 25 27  2  0
 29 31  1  0
 31 33  1  0
 31 32  2  0
  2 34  1  0
  2 35  1  0
  3 36  1  0
  5 37  1  0
  7 38  1  0
  9 39  1  0
 11 40  1  0
 15 41  1  0
 15 42  1  0
 15 43  1  0
 17 44  1  0
 17 45  1  0
 17 46  1  0
 20 47  1  0
 20 48  1  0
 20 49  1  0
 23 50  1  0
 23 51  1  0
 23 52  1  0
 26 53  1  0
 27 54  1  0
 28 55  1  0
 30 56  1  0
M  END
> <Name>
RCF2009 - Intermediário - (5)

$$$$
RCF2009 - Intermediário - (6)
  SciTegic12132405553D

 61 62  0  0  0  0            999 V2000
   -6.6869    0.6376   -0.9963 O   0  0
   -7.8639    0.8935   -0.2188 C   0  0
   -8.2227   -0.3460    0.6553 C   0  0  1  0  0  0
   -7.6645   -0.1862    1.9827 O   0  0
   -7.8980   -1.2934    2.8913 C   0  0  1  0  0  0
   -7.3831   -0.9624    4.1971 O   0  0
   -9.4131   -1.5927    3.0644 C   0  0  2  0  0  0
   -9.5611   -2.7795    3.8650 O   0  0
  -10.0550   -1.8118    1.6681 C   0  0  1  0  0  0
  -11.4685   -2.0571    1.8038 O   0  0
   -9.7591   -0.5890    0.7479 C   0  0  1  0  0  0
  -10.3923    0.5808    1.2961 O   0  0
  -10.2398   -2.9686    5.0384 C   0  0
  -10.0276   -4.0482    5.6360 O   0  0
  -11.2087   -2.0112    5.6052 C   0  0
  -12.2950   -2.5671    0.8350 C   0  0
  -13.7229   -2.7806    1.1124 C   0  0
  -11.8600   -2.8819   -0.2977 O   0  0
  -11.3193    1.3909    0.7078 C   0  0
  -11.8232    2.5510    1.4526 C   0  0
  -11.7367    1.1877   -0.4568 O   0  0
   -5.5188    1.3371   -1.0542 C   0  0
   -4.5140    0.8823   -2.0265 C   0  0
   -5.3046    2.3323   -0.3237 O   0  0
   -6.0206   -1.0261    4.2769 C   0  0
   -5.4032   -2.2337    4.6473 C   0  0
   -5.2289    0.1047    4.0126 C   0  0
   -3.8268    0.0173    4.0882 C   0  0
   -3.1770   -1.1994    4.4312 C   0  0
   -4.0018   -2.3173    4.7279 C   0  0
   -1.7730   -1.2329    4.4540 C   0  0
   -0.9934   -2.3296    4.5395 C   0  0
    0.3907   -2.3065    4.5363 C   0  0
    1.0336   -3.3764    4.6455 O   0  0
    1.1041   -1.1617    4.4031 O   0  0
   -7.5893    1.7093    0.4499 H   0  0
   -8.6608    1.0325   -0.9494 H   0  0
   -7.7474   -1.2331    0.2367 H   0  0
   -7.3360   -2.1285    2.4732 H   0  0
   -9.9295   -0.8044    3.6120 H   0  0
   -9.6912   -2.7267    1.2005 H   0  0
  -10.1957   -0.7256   -0.2415 H   0  0
  -11.1665   -2.0530    6.6936 H   0  0
  -10.9623   -1.0036    5.2704 H   0  0
  -12.2133   -2.2697    5.2704 H   0  0
  -13.8841   -2.8047    2.1901 H   0  0
  -14.3033   -1.9675    0.6763 H   0  0
  -14.0401   -3.7279    0.6763 H   0  0
  -11.7402    2.3600    2.5225 H   0  0
  -11.2355    3.4319    1.1941 H   0  0
  -12.8681    2.7228    1.1941 H   0  0
   -3.6465    0.4897   -1.4959 H   0  0
   -4.9422    0.0992   -2.6522 H   0  0
   -4.2083    1.7209   -2.6522 H   0  0
   -6.0133   -3.1084    4.8728 H   0  0
   -5.7027    1.0502    3.7487 H   0  0
   -3.2339    0.9073    3.8776 H   0  0
   -3.5482   -3.2629    5.0249 H   0  0
   -1.2218   -0.2942    4.3985 H   0  0
   -1.5099   -3.2864    4.6154 H   0  0
    1.3196   -0.8160    5.2724 H   0  0
  1  2  1  0
  3  2  1  0
  3  4  1  0
  4  5  1  0
  5  6  1  0
  5  7  1  0
  7  8  1  0
  7  9  1  0
  9 10  1  0
  9 11  1  0
  3 11  1  0
 11 12  1  0
  8 13  1  0
 13 15  1  0
 13 14  2  0
 10 16  1  0
 16 17  1  0
 16 18  2  0
 12 19  1  0
 19 20  1  0
  1 22  1  0
 22 23  1  0
 22 24  2  0
 19 21  2  0
  6 25  1  0
 27 28  1  0
 28 29  2  0
 29 30  1  0
 26 30  2  0
 26 25  1  0
 25 27  2  0
 29 31  1  0
 31 32  2  0
 32 33  1  0
 33 35  1  0
 33 34  2  0
  2 36  1  0
  2 37  1  0
  3 38  1  0
  5 39  1  0
  7 40  1  0
  9 41  1  0
 11 42  1  0
 15 43  1  0
 15 44  1  0
 15 45  1  0
 17 46  1  0
 17 47  1  0
 17 48  1  0
 20 49  1  0
 20 50  1  0
 20 51  1  0
 23 52  1  0
 23 53  1  0
 23 54  1  0
 26 55  1  0
 27 56  1  0
 28 57  1  0
 30 58  1  0
 31 59  1  0
 32 60  1  0
 35 61  1  0
M  END
> <Name>
RCF2009 - Intermediário - (6)

$$$$
RCF2009 - Intermediário - (7)
  SciTegic12132405553D

 63 64  0  0  0  0            999 V2000
  -19.6247   -4.3896  -16.1691 O   0  0
  -20.3710   -3.7571  -15.1200 C   0  0
  -20.8015   -4.8162  -14.0588 C   0  0  1  0  0  0
  -19.9158   -4.7019  -12.9160 O   0  0
  -20.1420   -5.6834  -11.8759 C   0  0  1  0  0  0
  -19.2497   -5.4559  -10.7642 O   0  0
  -21.5899   -5.5891  -11.3331 C   0  0  2  0  0  0
  -21.7913   -6.6440  -10.3764 O   0  0
  -22.5945   -5.7475  -12.5020 C   0  0  1  0  0  0
  -23.9267   -5.6696  -11.9774 O   0  0
  -22.2934   -4.6864  -13.6062 C   0  0  1  0  0  0
  -22.5024   -3.3616  -13.0818 O   0  0
  -22.1455   -6.5680   -9.0610 C   0  0
  -22.1379   -7.6427   -8.4204 O   0  0
  -22.5473   -5.3223   -8.3846 C   0  0
  -25.0719   -6.0722  -12.5996 C   0  0
  -26.3509   -5.9236  -11.9047 C   0  0
  -25.0593   -6.5729  -13.7482 O   0  0
  -23.3427   -2.3849  -13.5294 C   0  0
  -23.3333   -1.0754  -12.8625 C   0  0
  -24.1041   -2.5732  -14.5065 O   0  0
  -18.3495   -4.1598  -16.5915 C   0  0
  -17.8672   -4.9483  -17.7331 C   0  0
  -17.6034   -3.3157  -16.0430 O   0  0
  -17.9712   -5.8638  -11.0185 C   0  0
  -17.5897   -7.1951  -10.7595 C   0  0
  -17.0306   -4.9560  -11.5375 C   0  0
  -15.7267   -5.3881  -11.8383 C   0  0
  -15.3441   -6.7339  -11.6237 C   0  0
  -16.2874   -7.6280  -11.0651 C   0  0
  -13.9787   -7.1970  -11.9893 C   0  0
  -12.9064   -6.7622  -10.9561 C   0  0
  -11.5621   -7.2450  -11.3261 C   0  0
  -11.0187   -6.8716  -12.3901 O   0  0
  -10.8926   -8.1083  -10.5283 O   0  0
  -19.6709   -3.0687  -14.6467 H   0  0
  -21.2711   -3.3741  -15.6008 H   0  0
  -20.6667   -5.8170  -14.4692 H   0  0
  -19.8991   -6.6445  -12.3291 H   0  0
  -21.7623   -4.6570  -10.7950 H   0  0
  -22.5743   -6.7398  -12.9527 H   0  0
  -22.9892   -4.7812  -14.4398 H   0  0
  -22.5016   -5.4641   -7.3048 H   0  0
  -21.8718   -4.5174   -8.6743 H   0  0
  -23.5658   -5.0638   -8.6743 H   0  0
  -26.1837   -5.9431  -10.8277 H   0  0
  -26.8082   -4.9745  -12.1843 H   0  0
  -27.0136   -6.7426  -12.1843 H   0  0
  -23.3343   -1.2180  -11.7818 H   0  0
  -22.4393   -0.5249  -13.1555 H   0  0
  -24.2192   -0.5121  -13.1555 H   0  0
  -17.9625   -6.0104  -17.5073 H   0  0
  -18.4603   -4.7098  -18.6159 H   0  0
  -16.8207   -4.7098  -17.9231 H   0  0
  -18.3040   -7.8923  -10.3214 H   0  0
  -17.3123   -3.9167  -11.7067 H   0  0
  -15.0075   -4.6747  -12.2407 H   0  0
  -16.0075   -8.6628  -10.8677 H   0  0
  -14.0256   -8.2855  -11.9580 H   0  0
  -13.7425   -6.6883  -12.9239 H   0  0
  -13.1438   -7.2608  -10.0163 H   0  0
  -12.8436   -5.6747  -10.9954 H   0  0
  -11.0613   -7.8907   -9.6086 H   0  0
  1  2  1  0
  3  2  1  0
  3  4  1  0
  4  5  1  0
  5  6  1  0
  5  7  1  0
  7  8  1  0
  7  9  1  0
  9 10  1  0
  9 11  1  0
  3 11  1  0
 11 12  1  0
  8 13  1  0
 13 15  1  0
 13 14  2  0
 10 16  1  0
 16 17  1  0
 16 18  2  0
 12 19  1  0
 19 20  1  0
  1 22  1  0
 22 23  1  0
 22 24  2  0
 19 21  2  0
  6 25  1  0
 27 28  1  0
 28 29  2  0
 29 30  1  0
 26 30  2  0
 26 25  1  0
 25 27  2  0
 29 31  1  0
 32 33  1  0
 33 35  1  0
 33 34  2  0
 31 32  1  0
  2 36  1  0
  2 37  1  0
  3 38  1  0
  5 39  1  0
  7 40  1  0
  9 41  1  0
 11 42  1  0
 15 43  1  0
 15 44  1  0
 15 45  1  0
 17 46  1  0
 17 47  1  0
 17 48  1  0
 20 49  1  0
 20 50  1  0
 20 51  1  0
 23 52  1  0
 23 53  1  0
 23 54  1  0
 26 55  1  0
 27 56  1  0
 28 57  1  0
 30 58  1  0
 31 59  1  0
 31 60  1  0
 32 61  1  0
 32 62  1  0
 35 63  1  0
M  END
> <Name>
RCF2009 - Intermediário - (7)

$$$$
RCF2009 - Intermediário - (8)
  SciTegic12132405553D

138141  0  0  0  0            999 V2000
   13.7578    3.0621    3.1707 O   0  0
   14.2221    2.2932    4.2868 C   0  0
   14.3010    3.1783    5.5681 C   0  0  1  0  0  0
   13.1019    3.0064    6.3685 O   0  0
   13.0464    3.8167    7.5717 C   0  0  1  0  0  0
   11.8417    3.5106    8.3090 O   0  0
   14.2565    3.5433    8.5048 C   0  0  2  0  0  0
   14.1980    4.4712    9.6063 O   0  0
   15.5720    3.7418    7.7067 C   0  0  1  0  0  0
   16.6962    3.4379    8.5486 O   0  0
   15.5659    2.8645    6.4221 C   0  0  1  0  0  0
   15.5426    1.4774    6.7957 O   0  0
   14.0989    4.2350   10.9516 C   0  0
   13.7767    5.2076   11.6719 O   0  0
   14.3833    2.9354   11.5894 C   0  0
   17.9935    3.8192    8.3361 C   0  0
   19.0479    3.3822    9.2620 C   0  0
   18.3133    4.5462    7.3643 O   0  0
   16.4457    0.5047    6.4851 C   0  0
   16.2102   -0.8690    6.9500 C   0  0
   17.4686    0.7501    5.8040 O   0  0
   12.6955    2.8327    2.3521 C   0  0
   12.4948    3.7662    1.2364 C   0  0
   11.9183    1.8650    2.5248 O   0  0
   10.7264    4.0766    7.7548 C   0  0
   10.3668    5.3926    8.1068 C   0  0
    9.9385    3.3627    6.8311 C   0  0
    8.8324    3.9836    6.2211 C   0  0
    8.4927    5.3230    6.5319 C   0  0
    9.2667    6.0145    7.4924 C   0  0
    7.3381    5.9879    5.8728 C   0  0
    5.9864    5.4902    6.4517 C   0  0
    4.8254    6.1819    5.8575 C   0  0
    4.0527    6.8451    6.5905 O   0  0
    4.6038    6.0664    4.5229 N   0  0
    2.2799    6.6342    1.5685 C   0  0
    2.3838    6.4097    0.0395 C   0  0
    1.0710    6.3216   -0.5111 N   0  0
    0.7676    6.0601   -1.8080 C   0  0
    1.6590    6.0160   -2.6885 O   0  0
   -0.6414    5.7838   -2.1690 C   0  0
   -1.1798    4.5166   -1.4485 C   0  0
   -3.9836   -2.1023   -3.1829 O   0  0
   -5.2484   -1.6791   -3.7178 C   0  0
   -6.0444   -0.8486   -2.6628 C   0  0  1  0  0  0
   -5.9567    0.5640   -2.9801 O   0  0
   -6.6064    1.4519   -2.0327 C   0  0  1  0  0  0
   -6.5013    2.8241   -2.4869 O   0  0
   -8.1140    1.1169   -1.8798 C   0  0  2  0  0  0
   -8.6474    1.9376   -0.8252 O   0  0
   -8.2769   -0.3813   -1.5087 C   0  0  1  0  0  0
   -9.6734   -0.7141   -1.4182 O   0  0
   -7.5403   -1.2777   -2.5502 C   0  0  1  0  0  0
   -8.1817   -1.1345   -3.8311 O   0  0
   -9.6193    2.8995   -0.8566 C   0  0
   -9.7440    3.5877    0.1816 O   0  0
  -10.5160    3.1531   -2.0018 C   0  0
  -10.2018   -1.8371   -0.8362 C   0  0
  -11.6518   -2.0736   -0.8865 C   0  0
   -9.4762   -2.6699   -0.2411 O   0  0
   -8.7800   -2.0941   -4.5944 C   0  0
   -9.3242   -1.7190   -5.9046 C   0  0
   -8.8634   -3.2862   -4.2160 O   0  0
   -2.7220   -1.8662   -3.6455 C   0  0
   -1.6052   -2.4943   -2.9233 C   0  0
   -2.5082   -1.1546   -4.6555 O   0  0
   -5.2538    3.3489   -2.2843 C   0  0
   -4.2826    3.2969   -3.3017 C   0  0
   -4.9271    3.9179   -1.0375 C   0  0
   -3.6095    4.3328   -0.7754 C   0  0
   -2.6018    4.2028   -1.7607 C   0  0
   -2.9657    3.7176   -3.0398 C   0  0
    3.4977    6.6401    3.8349 C   0  0
    3.6024    6.3392    2.3193 C   0  0
   13.4545    1.5361    4.4469 H   0  0
   15.2360    1.9938    4.0211 H   0  0
   14.3111    4.2300    5.2819 H   0  0
   13.0011    4.8491    7.2248 H   0  0
   14.2234    2.5497    8.9517 H   0  0
   15.7215    4.7874    7.4374 H   0  0
   16.4817    3.0044    5.8478 H   0  0
   14.3583    3.0493   12.6731 H   0  0
   13.6314    2.2081   11.2831 H   0  0
   15.3702    2.5886   11.2831 H   0  0
   18.7105    3.5220   10.2890 H   0  0
   19.2669    2.3281    9.0918 H   0  0
   19.9484    3.9724    9.0918 H   0  0
   16.2069   -0.8882    8.0399 H   0  0
   15.2473   -1.2187    6.5776 H   0  0
   17.0017   -1.5194    6.5776 H   0  0
   12.3294    3.2039    0.3174 H   0  0
   11.6270    4.3938    1.4394 H   0  0
   13.3789    4.3938    1.1242 H   0  0
   10.9427    5.9325    8.8584 H   0  0
   10.1850    2.3291    6.5882 H   0  0
    8.2343    3.4231    5.5027 H   0  0
    9.0123    7.0395    7.7624 H   0  0
    7.4259    7.0444    6.1262 H   0  0
    7.3758    5.6726    4.8301 H   0  0
    5.9713    5.7630    7.5069 H   0  0
    5.8779    4.4464    6.1570 H   0  0
    5.2940    5.5285    4.0185 H   0  0
    2.0893    7.6989    1.7032 H   0  0
    1.5590    5.9013    1.9310 H   0  0
    2.8258    7.3006   -0.4067 H   0  0
    2.8359    5.4328   -0.1318 H   0  0
    0.2665    6.4597    0.0838 H   0  0
   -1.2093    6.6344   -1.7920 H   0  0
   -0.6297    5.5665   -3.2370 H   0  0
   -0.6124    3.6715   -1.8381 H   0  0
   -1.1673    4.7358   -0.3808 H   0  0
   -4.9973   -1.0171   -4.5465 H   0  0
   -5.7989   -2.6011   -3.9043 H   0  0
   -5.5708   -0.9670   -1.6883 H   0  0
   -6.0466    1.3409   -1.1040 H   0  0
   -8.6854    1.3580   -2.7762 H   0  0
   -7.9000   -0.5853   -0.5064 H   0  0
   -7.6253   -2.3344   -2.2969 H   0  0
  -10.8454    2.2031   -2.4226 H   0  0
  -11.3830    3.7217   -1.6655 H   0  0
   -9.9815    3.7217   -2.7628 H   0  0
  -12.0449   -2.1377    0.1281 H   0  0
  -12.1361   -1.2508   -1.4125 H   0  0
  -11.8496   -3.0076   -1.4125 H   0  0
   -9.5596   -2.6197   -6.4716 H   0  0
  -10.2304   -1.1294   -5.7664 H   0  0
   -8.5866   -1.1294   -6.4491 H   0  0
   -1.7691   -2.4021   -1.8496 H   0  0
   -1.5456   -3.5489   -3.1925 H   0  0
   -0.6731   -1.9974   -3.1925 H   0  0
   -4.5504    2.9307   -4.2927 H   0  0
   -5.6955    4.0374   -0.2737 H   0  0
   -3.3676    4.7583    0.1985 H   0  0
   -2.2212    3.6672   -3.8343 H   0  0
    2.6207    6.1224    4.2234 H   0  0
    3.6019    7.7161    3.9748 H   0  0
    4.3394    7.0369    1.9217 H   0  0
    3.7670    5.2651    2.2339 H   0  0
  1  2  1  0
  3  2  1  0
  3  4  1  0
  4  5  1  0
  5  6  1  0
  5  7  1  0
  7  8  1  0
  7  9  1  0
  9 10  1  0
  9 11  1  0
  3 11  1  0
 11 12  1  0
  8 13  1  0
 13 15  1  0
 13 14  2  0
 10 16  1  0
 16 17  1  0
 16 18  2  0
 12 19  1  0
 19 20  1  0
  1 22  1  0
 22 23  1  0
 22 24  2  0
 19 21  2  0
  6 25  1  0
 27 28  1  0
 28 29  2  0
 29 30  1  0
 26 30  2  0
 26 25  1  0
 25 27  2  0
 29 31  1  0
 32 33  1  0
 33 35  1  0
 33 34  2  0
 31 32  1  0
 36 37  1  0
 37 38  1  0
 38 39  1  0
 39 41  1  0
 41 42  1  0
 43 44  1  0
 45 44  1  0
 45 46  1  0
 46 47  1  0
 47 48  1  0
 47 49  1  0
 49 50  1  0
 49 51  1  0
 51 52  1  0
 51 53  1  0
 45 53  1  0
 53 54  1  0
 50 55  1  0
 55 57  1  0
 55 56  2  0
 52 58  1  0
 58 59  1  0
 58 60  2  0
 54 61  1  0
 61 62  1  0
 43 64  1  0
 64 65  1  0
 64 66  2  0
 61 63  2  0
 48 67  1  0
 69 70  1  0
 70 71  2  0
 71 72  1  0
 68 72  2  0
 68 67  1  0
 67 69  2  0
 39 40  2  0
 35 73  1  0
 73 74  1  0
 74 36  1  0
 42 71  1  0
  2 75  1  0
  2 76  1  0
  3 77  1  0
  5 78  1  0
  7 79  1  0
  9 80  1  0
 11 81  1  0
 15 82  1  0
 15 83  1  0
 15 84  1  0
 17 85  1  0
 17 86  1  0
 17 87  1  0
 20 88  1  0
 20 89  1  0
 20 90  1  0
 23 91  1  0
 23 92  1  0
 23 93  1  0
 26 94  1  0
 27 95  1  0
 28 96  1  0
 30 97  1  0
 31 98  1  0
 31 99  1  0
 32100  1  0
 32101  1  0
 35102  1  0
 36103  1  0
 36104  1  0
 37105  1  0
 37106  1  0
 38107  1  0
 41108  1  0
 41109  1  0
 42110  1  0
 42111  1  0
 44112  1  0
 44113  1  0
 45114  1  0
 47115  1  0
 49116  1  0
 51117  1  0
 53118  1  0
 57119  1  0
 57120  1  0
 57121  1  0
 59122  1  0
 59123  1  0
 59124  1  0
 62125  1  0
 62126  1  0
 62127  1  0
 65128  1  0
 65129  1  0
 65130  1  0
 68131  1  0
 69132  1  0
 70133  1  0
 72134  1  0
 73135  1  0
 73136  1  0
 74137  1  0
 74138  1  0
M  END
> <Name>
RCF2009 - Intermediário - (8)

$$$$
RCF2009 - Intermediário - (9)
  SciTegic12132405553D

134137  0  0  0  0            999 V2000
   15.7930    5.0557    6.9268 O   0  0
   16.2395    3.7081    7.1200 C   0  0
   16.4171    3.4013    8.6384 C   0  0  1  0  0  0
   15.2346    2.7358    9.1552 O   0  0
   15.2708    2.4364   10.5752 C   0  0  1  0  0  0
   14.0719    1.7231   10.9524 O   0  0
   16.4885    1.5468   10.9439 C   0  0  2  0  0  0
   16.5263    1.4023   12.3776 O   0  0
   17.7888    2.2263   10.4397 C   0  0  1  0  0  0
   18.9158    1.3832   10.7291 O   0  0
   17.6842    2.5391    8.9194 C   0  0  1  0  0  0
   17.5799    1.3069    8.1882 O   0  0
   16.4535    0.2741   13.1505 C   0  0
   16.2196    0.4408   14.3695 O   0  0
   16.6702   -1.0946   12.6440 C   0  0
   20.2285    1.7695   10.7640 C   0  0
   21.2796    0.7752   11.0215 C   0  0
   20.5657    2.9654   10.5865 O   0  0
   18.4060    0.8319    7.2134 C   0  0
   18.0939   -0.4516    6.5699 C   0  0
   19.4213    1.4670    6.8444 O   0  0
   14.6928    5.5098    6.2675 C   0  0
   14.5203    6.9651    6.1740 C   0  0
   13.8585    4.7316    5.7492 O   0  0
   12.9802    2.5415   11.0499 C   0  0
   12.7204    3.2125   12.2613 C   0  0
   12.1181    2.7276    9.9518 C   0  0
   11.0374    3.6243   10.0491 C   0  0
   10.7977    4.3406   11.2472 C   0  0
   11.6457    4.1128   12.3558 C   0  0
    9.6979    5.2525   11.3392 C   0  0
    8.3347    4.5233   11.4795 C   0  0
    7.1768    5.5107   11.6483 C   0  0
    6.4732    5.4641   12.6861 O   0  0
    6.9066    6.3943   10.6534 N   0  0
    4.5349    8.9674    9.1679 C   0  0
    4.5760    9.9070    7.9374 C   0  0
    3.2438   10.2729    7.5830 N   0  0
    2.8834   11.0300    6.5155 C   0  0
    3.7420   11.6103    5.8100 O   0  0
    1.4486   11.1312    6.1650 C   0  0
    0.8494    9.7456    5.7964 C   0  0
   -2.4426    6.4567    0.0497 O   0  0
   -3.6924    7.1657    0.0688 C   0  0
   -4.3980    7.0047    1.4517 C   0  0  1  0  0  0
   -4.2261    8.2127    2.2358 O   0  0
   -4.7852    8.1652    3.5749 C   0  0  1  0  0  0
   -4.6029    9.4430    4.2339 O   0  0
   -6.3063    7.8588    3.5464 C   0  0  2  0  0  0
   -6.7506    7.6849    4.9038 O   0  0
   -6.5572    6.5544    2.7436 C   0  0  1  0  0  0
   -7.9694    6.2918    2.6656 O   0  0
   -5.9150    6.6615    1.3270 C   0  0  1  0  0  0
   -6.5849    7.6966    0.5838 O   0  0
   -7.6567    8.3997    5.6379 C   0  0
   -7.7028    8.1355    6.8607 O   0  0
   -8.5696    9.4203    5.0858 C   0  0
   -8.5532    5.1056    2.3032 C   0  0
  -10.0166    5.0124    2.1999 C   0  0
   -7.8667    4.0816    2.0704 O   0  0
   -7.2694    7.5921   -0.5918 C   0  0
   -7.8277    8.8071   -1.1962 C   0  0
   -7.4204    6.4934   -1.1761 O   0  0
   -1.1831    6.9227   -0.1907 C   0  0
   -0.0887    5.9402   -0.2159 C   0  0
   -0.9538    8.1378   -0.3984 O   0  0
   -3.3174    9.6323    4.6634 C   0  0
   -2.3840   10.3035    3.8515 C   0  0
   -2.9149    9.1245    5.9144 C   0  0
   -1.5650    9.1930    6.3018 C   0  0
   -0.5994    9.7859    5.4538 C   0  0
   -1.0345   10.3761    4.2429 C   0  0
    5.8204    7.3141   10.6627 C   0  0
    5.8575    8.1910    9.3868 C   0  0
   15.4284    3.0852    6.7429 H   0  0
   17.2223    3.6663    6.6505 H   0  0
   16.4884    4.3380    9.1914 H   0  0
   15.2838    3.4045   11.0759 H   0  0
   16.4030    0.5357   10.5458 H   0  0
   17.9993    3.1432   10.9903 H   0  0
   18.5890    3.0268    8.5566 H   0  0
   16.7788   -1.7801   13.4845 H   0  0
   15.8170   -1.3966   12.0367 H   0  0
   17.5751   -1.1182   12.0367 H   0  0
   21.4087    0.6531   12.0969 H   0  0
   20.9933   -0.1790   10.5793 H   0  0
   22.2165    1.1141   10.5793 H   0  0
   17.9104   -1.2064    7.3347 H   0  0
   17.2051   -0.3401    5.9489 H   0  0
   18.9347   -0.7606    5.9489 H   0  0
   14.4699    7.3902    7.1765 H   0  0
   15.3652    7.3975    5.6381 H   0  0
   13.5976    7.1879    5.6381 H   0  0
   13.3541    3.0341   13.1300 H   0  0
   12.2873    2.1775    9.0262 H   0  0
   10.3812    3.7650    9.1903 H   0  0
   11.4688    4.6376   13.2946 H   0  0
    9.8705    6.3283   11.3075 H   0  0
    8.2053    3.4412   11.4616 H   0  0
    7.5433    6.3660    9.8699 H   0  0
    4.4201    9.6155   10.0367 H   0  0
    3.7784    8.2148    8.9456 H   0  0
    5.0624   10.8363    8.2340 H   0  0
    4.9564    9.3399    7.0878 H   0  0
    2.4692    9.9611    8.1513 H   0  0
    0.9146   12.0814    6.1765 H   0  0
    1.4072    8.8092    5.7794 H   0  0
   -3.4235    8.2152   -0.0510 H   0  0
   -4.3087    6.6719   -0.6824 H   0  0
   -3.9032    6.2109    2.0113 H   0  0
   -4.2054    7.4075    4.1020 H   0  0
   -6.8879    8.6841    3.1356 H   0  0
   -6.1639    5.6836    3.2680 H   0  0
   -6.0623    5.7469    0.7527 H   0  0
   -9.0505    9.9579    5.9030 H   0  0
   -8.0029   10.1216    4.4734 H   0  0
   -9.3295    8.9349    4.4734 H   0  0
  -10.4504    4.9847    3.1995 H   0  0
  -10.3989    5.8798    1.6618 H   0  0
  -10.2857    4.1034    1.6618 H   0  0
   -8.1427    9.4926   -0.4094 H   0  0
   -7.0690    9.2873   -1.8141 H   0  0
   -8.6863    8.5440   -1.8141 H   0  0
    0.1947    5.6858    0.8054 H   0  0
   -0.4195    5.0412   -0.7359 H   0  0
    0.7696    6.3657   -0.7359 H   0  0
   -2.7064   10.7672    2.9192 H   0  0
   -3.6495    8.6776    6.5843 H   0  0
   -1.2651    8.7835    7.2664 H   0  0
   -0.3201   10.8938    3.6028 H   0  0
    4.9232    6.6964   10.6233 H   0  0
    6.0005    7.9593   11.5226 H   0  0
    6.6267    8.9440    9.5583 H   0  0
    5.9473    7.5016    8.5473 H   0  0
  1  2  1  0
  3  2  1  0
  3  4  1  0
  4  5  1  0
  5  6  1  0
  5  7  1  0
  7  8  1  0
  7  9  1  0
  9 10  1  0
  9 11  1  0
  3 11  1  0
 11 12  1  0
  8 13  1  0
 13 15  1  0
 13 14  2  0
 10 16  1  0
 16 17  1  0
 16 18  2  0
 12 19  1  0
 19 20  1  0
  1 22  1  0
 22 23  1  0
 22 24  2  0
 19 21  2  0
  6 25  1  0
 27 28  1  0
 28 29  2  0
 29 30  1  0
 26 30  2  0
 26 25  1  0
 25 27  2  0
 29 31  1  0
 32 33  1  0
 33 35  1  0
 33 34  2  0
 36 37  1  0
 37 38  1  0
 38 39  1  0
 39 41  1  0
 43 44  1  0
 45 44  1  0
 45 46  1  0
 46 47  1  0
 47 48  1  0
 47 49  1  0
 49 50  1  0
 49 51  1  0
 51 52  1  0
 51 53  1  0
 45 53  1  0
 53 54  1  0
 50 55  1  0
 55 57  1  0
 55 56  2  0
 52 58  1  0
 58 59  1  0
 58 60  2  0
 54 61  1  0
 61 62  1  0
 43 64  1  0
 64 65  1  0
 64 66  2  0
 61 63  2  0
 48 67  1  0
 69 70  1  0
 70 71  2  0
 71 72  1  0
 68 72  2  0
 68 67  1  0
 67 69  2  0
 39 40  2  0
 35 73  1  0
 73 74  1  0
 74 36  1  0
 42 71  1  0
 41 42  2  0
 31 32  2  0
  2 75  1  0
  2 76  1  0
  3 77  1  0
  5 78  1  0
  7 79  1  0
  9 80  1  0
 11 81  1  0
 15 82  1  0
 15 83  1  0
 15 84  1  0
 17 85  1  0
 17 86  1  0
 17 87  1  0
 20 88  1  0
 20 89  1  0
 20 90  1  0
 23 91  1  0
 23 92  1  0
 23 93  1  0
 26 94  1  0
 27 95  1  0
 28 96  1  0
 30 97  1  0
 31 98  1  0
 32 99  1  0
 35100  1  0
 36101  1  0
 36102  1  0
 37103  1  0
 37104  1  0
 38105  1  0
 41106  1  0
 42107  1  0
 44108  1  0
 44109  1  0
 45110  1  0
 47111  1  0
 49112  1  0
 51113  1  0
 53114  1  0
 57115  1  0
 57116  1  0
 57117  1  0
 59118  1  0
 59119  1  0
 59120  1  0
 62121  1  0
 62122  1  0
 62123  1  0
 65124  1  0
 65125  1  0
 65126  1  0
 68127  1  0
 69128  1  0
 70129  1  0
 72130  1  0
 73131  1  0
 73132  1  0
 74133  1  0
 74134  1  0
M  END
> <Name>
RCF2009 - Intermediário - (9)

$$$$
RCF2009 - Intermediário - (10)
  SciTegic12132405553D

 94 97  0  0  0  0            999 V2000
   18.0352   -4.0165   -2.5470 O   0  0
   19.1862   -4.0063   -3.3866 C   0  0
   19.8067   -2.5915   -3.4116 C   0  0  1  0  0  0
   20.1924   -2.2678   -2.0610 O   0  0
   20.6760   -0.9178   -1.8696 C   0  0  1  0  0  0
   21.0118   -0.7247   -0.4778 O   0  0
   21.9415   -0.6824   -2.7388 C   0  0  2  0  0  0
   22.3689    0.6756   -2.6357 O   0  0
   21.6558   -1.0447   -4.2244 C   0  0  1  0  0  0
   22.8465   -0.9395   -5.0020 O   0  0
   21.0402   -2.4658   -4.3562 C   0  0  1  0  0  0
   22.0337   -3.4454   -4.0486 O   0  0
   19.9280   -0.8546    0.3514 C   0  0
   19.6321   -2.0914    0.9542 C   0  0
   19.0949    0.2492    0.6029 C   0  0
   17.9588    0.1102    1.4194 C   0  0
   17.6214   -1.1391    2.0094 C   0  0
   18.4947   -2.2319    1.7687 C   0  0
   16.4845   -1.3548    2.8078 C   0  0
   15.4995   -0.4747    3.0664 C   0  0
   14.3943   -0.7272    3.8668 C   0  0
   14.1945   -1.8558    4.3805 O   0  0
   13.5263    0.2969    4.0846 N   0  0
   10.3385    1.5533    5.7712 C   0  0
    9.5720    2.9029    5.8458 C   0  0
    8.1876    2.6624    6.1089 N   0  0
    7.2297    3.6114    6.3060 C   0  0
    7.5649    4.8110    6.4570 O   0  0
    5.8700    3.3104    6.2889 C   0  0
    5.3467    2.1214    5.9218 C   0  0
    2.2734    3.7977    1.1732 O   0  0
    0.9098    3.6696    0.7875 C   0  0
    0.3703    2.2656    1.1485 C   0  0  1  0  0  0
    0.4159    2.1055    2.5831 O   0  0
    0.0520    0.7875    3.0721 C   0  0  1  0  0  0
    0.0915    0.7551    4.5214 O   0  0
   -1.3876    0.4211    2.6170 C   0  0  2  0  0  0
   -1.6905   -0.9294    2.9688 O   0  0
   -1.5762    0.6221    1.0852 C   0  0  1  0  0  0
   -2.9995    0.5019    0.7792 O   0  0
   -1.0883    2.0338    0.6510 C   0  0  1  0  0  0
   -1.9696    3.0381    1.1611 O   0  0
    1.3305    1.0658    5.0149 C   0  0
    2.3289    0.0818    5.1316 C   0  0
    1.6282    2.3917    5.3805 C   0  0
    2.9416    2.7558    5.7290 C   0  0
    3.9912    1.7986    5.7431 C   0  0
    3.6396    0.4446    5.4903 C   0  0
   12.3525    0.2234    4.8878 C   0  0
   11.6149    1.5876    4.8913 C   0  0
   18.3100   -4.0141   -1.6272 H   0  0
   19.8972   -4.6789   -2.9067 H   0  0
   18.8139   -4.2299   -4.3863 H   0  0
   19.0581   -1.8681   -3.7345 H   0  0
   19.8562   -0.2418   -2.1125 H   0  0
   22.7858   -1.2537   -2.3532 H   0  0
   22.4451    0.9177   -1.7098 H   0  0
   20.9894   -0.3064   -4.6704 H   0  0
   23.6053   -0.8724   -4.4178 H   0  0
   20.7615   -2.7002   -5.3836 H   0  0
   22.1175   -3.5280   -3.0959 H   0  0
   20.2881   -2.9461    0.7893 H   0  0
   19.3310    1.2180    0.1626 H   0  0
   17.3308    0.9832    1.5976 H   0  0
   18.2870   -3.2021    2.2201 H   0  0
   16.3499   -2.3251    3.2858 H   0  0
   15.6035    0.5040    2.5981 H   0  0
   13.7674    1.1623    3.6229 H   0  0
   10.6852    1.3537    6.7851 H   0  0
    9.6609    0.8551    5.2797 H   0  0
    9.9368    3.4523    6.7136 H   0  0
    9.5996    3.3633    4.8582 H   0  0
    7.8472    1.7129    6.1616 H   0  0
    5.1516    4.0731    6.5896 H   0  0
    6.0927    1.3448    5.7528 H   0  0
    2.3357    3.8036    2.1312 H   0  0
    0.3751    4.4014    1.3930 H   0  0
    0.9139    3.7595   -0.2987 H   0  0
    1.0243    1.5078    0.7170 H   0  0
    0.8180    0.1079    2.6987 H   0  0
   -2.1116    1.0191    3.1706 H   0  0
   -1.7096   -1.0144    3.9248 H   0  0
   -1.0479   -0.1494    0.5250 H   0  0
   -3.5002    0.4596    1.5973 H   0  0
   -1.1553    2.1654   -0.4289 H   0  0
   -1.9539    3.0202    2.1208 H   0  0
    2.0863   -0.9641    4.9437 H   0  0
    0.8368    3.1411    5.3939 H   0  0
    3.1488    3.7933    5.9915 H   0  0
    4.3954   -0.3364    5.5738 H   0  0
   11.7132   -0.5052    4.3892 H   0  0
   12.7125    0.0313    5.8985 H   0  0
   12.2921    2.2993    5.3636 H   0  0
   11.2762    1.7538    3.8687 H   0  0
  1  2  1  0
  3  2  1  0
  3  4  1  0
  5  4  1  0
  5  6  1  0
  7  5  1  0
  7  8  1  0
  7  9  1  0
  9 10  1  0
  9 11  1  0
 11  3  1  0
 11 12  1  0
  6 13  1  0
 15 16  1  0
 16 17  2  0
 17 18  1  0
 14 18  2  0
 14 13  1  0
 13 15  2  0
 17 19  1  0
 20 21  1  0
 21 23  1  0
 21 22  2  0
 24 25  1  0
 25 26  1  0
 26 27  1  0
 27 29  1  0
 31 32  1  0
 33 32  1  0
 33 34  1  0
 35 34  1  0
 35 36  1  0
 37 35  1  0
 37 38  1  0
 37 39  1  0
 39 40  1  0
 39 41  1  0
 41 33  1  0
 41 42  1  0
 36 43  1  0
 45 46  1  0
 46 47  2  0
 47 48  1  0
 44 48  2  0
 44 43  1  0
 43 45  2  0
 27 28  2  0
 23 49  1  0
 49 50  1  0
 50 24  1  0
 30 47  1  0
 29 30  2  0
 19 20  2  0
  1 51  1  0
  2 52  1  0
  2 53  1  0
  3 54  1  0
  5 55  1  0
  7 56  1  0
  8 57  1  0
  9 58  1  0
 10 59  1  0
 11 60  1  0
 12 61  1  0
 14 62  1  0
 15 63  1  0
 16 64  1  0
 18 65  1  0
 19 66  1  0
 20 67  1  0
 23 68  1  0
 24 69  1  0
 24 70  1  0
 25 71  1  0
 25 72  1  0
 26 73  1  0
 29 74  1  0
 30 75  1  0
 31 76  1  0
 32 77  1  0
 32 78  1  0
 33 79  1  0
 35 80  1  0
 37 81  1  0
 38 82  1  0
 39 83  1  0
 40 84  1  0
 41 85  1  0
 42 86  1  0
 44 87  1  0
 45 88  1  0
 46 89  1  0
 48 90  1  0
 49 91  1  0
 49 92  1  0
 50 93  1  0
 50 94  1  0
M  END
> <Name>
RCF2009 - Intermediário - (10)

$$$$
RCF2009 - Intermediário - (12)
  SciTegic12132405553D

 20 20  0  0  0  0            999 V2000
   -1.0048    0.5939    0.0000 C   0  0
    0.3289   -0.1761    0.0000 C   0  0
    0.3289   -1.7161    0.0000 C   0  0
   -1.0048   -2.4861    0.0000 C   0  0
   -2.3385   -1.7161    0.0000 C   0  0
   -2.3385   -0.1761    0.0000 C   0  0
   -1.0048    2.1339    0.0000 O   0  0
   -1.0048   -4.0261    0.0000 C   0  0
   -2.3385   -4.7961    0.0000 C   0  0
   -2.3385   -6.3361    0.0000 C   0  0
   -1.0048   -7.1061    0.0000 O   0  0
   -3.6722   -7.1061    0.0000 O   0  0
    1.6625    0.5939    0.0000 H   0  0
    1.6625   -2.4861    0.0000 H   0  0
   -3.6722   -2.4861    0.0000 H   0  0
   -3.6722    0.5939    0.0000 H   0  0
    0.3289    2.9039    0.0000 H   0  0
    0.3289   -4.7961    0.0000 H   0  0
   -3.6722   -4.0261    0.0000 H   0  0
   -5.0059   -6.3361    0.0000 H   0  0
  1  2  1  0
  2  3  2  0
  3  4  1  0
  4  5  2  0
  5  6  1  0
  1  6  2  0
  1  7  1  0
  4  8  1  0
  9 10  1  0
 10 12  1  0
 10 11  2  0
  8  9  2  0
  2 13  1  0
  3 14  1  0
  5 15  1  0
  6 16  1  0
  7 17  1  0
  8 18  1  0
  9 19  1  0
 12 20  1  0
M  END
> <Name>
RCF2009 - Intermediário - (12)

$$$$
RCF2009 - Intermediário - (13)
  SciTegic12132405553D

 33 34  0  0  0  0            999 V2000
   -0.9539    1.3487    0.0000 C   0  0
    0.3797    0.5787    0.0000 C   0  0
    0.3797   -0.9613    0.0000 C   0  0
   -0.9539   -1.7313    0.0000 C   0  0
   -2.2876   -0.9613    0.0000 C   0  0
   -2.2876    0.5787    0.0000 C   0  0
   -0.9539    2.8887    0.0000 O   0  0
   -0.9539   -3.2713    0.0000 C   0  0
   -2.2876   -4.0413    0.0000 C   0  0
   -2.2876   -5.5813    0.0000 C   0  0
   -0.9539   -6.3513    0.0000 O   0  0
   -3.6213   -6.3513    0.0000 O   0  0
   -3.6213   -7.8913    0.0000 C   0  0
   -4.9550   -8.6613    0.0000 C   0  0
   -4.9550  -10.2013    0.0000 C   0  0
   -6.2887   -7.8913    0.0000 C   0  0
   -7.6223   -8.6613    0.0000 C   0  0
   -7.6223  -10.2013    0.0000 C   0  0
   -6.2887  -10.9713    0.0000 C   0  0
    1.7134    1.3487    0.0000 H   0  0
    1.7134   -1.7313    0.0000 H   0  0
   -3.6213   -1.7313    0.0000 H   0  0
   -3.6213    1.3487    0.0000 H   0  0
    0.3797    3.6587    0.0000 H   0  0
    0.3797   -4.0413    0.0000 H   0  0
   -3.6213   -3.2713    0.0000 H   0  0
   -2.0822   -7.9450    0.0000 H   0  0
   -2.8052   -9.1973    0.0000 H   0  0
   -3.6213  -10.9713    0.0000 H   0  0
   -6.2887   -6.3513    0.0000 H   0  0
   -8.9560   -7.8913    0.0000 H   0  0
   -8.9560  -10.9713    0.0000 H   0  0
   -6.2887  -12.5113    0.0000 H   0  0
  1  2  1  0
  2  3  2  0
  3  4  1  0
  4  5  2  0
  5  6  1  0
  1  6  2  0
  1  7  1  0
  4  8  1  0
  9 10  1  0
 10 12  1  0
 10 11  2  0
  8  9  2  0
 12 13  1  0
 13 14  1  0
 16 17  1  0
 17 18  2  0
 18 19  1  0
 15 19  2  0
 15 14  1  0
 14 16  2  0
  2 20  1  0
  3 21  1  0
  5 22  1  0
  6 23  1  0
  7 24  1  0
  8 25  1  0
  9 26  1  0
 13 27  1  0
 13 28  1  0
 15 29  1  0
 16 30  1  0
 17 31  1  0
 18 32  1  0
 19 33  1  0
M  END
> <Name>
RCF2009 - Intermediário - (13)

$$$$
RCF2009 - Intermediário - (14)
  SciTegic12132405553D

 74 76  0  0  0  0            999 V2000
   -4.2170   -1.4752  -10.9774 O   0  0
   -5.3083   -0.7920  -10.3385 C   0  0
   -5.9156   -1.6427   -9.1870 C   0  0  1  0  0  0
   -5.1835   -1.3691   -7.9703 O   0  0
   -5.5869   -2.1486   -6.8178 C   0  0  1  0  0  0
   -4.8202   -1.7201   -5.6723 O   0  0
   -7.0903   -1.9382   -6.4879 C   0  0  2  0  0  0
   -7.4629   -2.8437   -5.4321 O   0  0
   -7.9470   -2.2183   -7.7541 C   0  0  1  0  0  0
   -9.3374   -1.9686   -7.4715 O   0  0
   -7.4345   -1.3699   -8.9562 C   0  0  1  0  0  0
   -7.6500    0.0248   -8.6667 O   0  0
   -8.0039   -2.5733   -4.2055 C   0  0
   -8.0424   -3.5200   -3.3877 O   0  0
   -8.5688   -1.2697   -3.8172 C   0  0
  -10.4076   -2.4215   -8.1959 C   0  0
  -11.7835   -2.1188   -7.7788 C   0  0
  -10.2476   -3.1258   -9.2202 O   0  0
   -8.4348    0.9204   -9.3346 C   0  0
   -8.5416    2.2992   -8.8345 C   0  0
   -9.0724    0.5966  -10.3632 O   0  0
   -3.4736   -0.9930  -12.0198 C   0  0
   -2.4782   -1.8638  -12.6659 C   0  0
   -3.6287    0.1792  -12.4346 O   0  0
   -3.5232   -2.1530   -5.7034 C   0  0
   -2.5144   -1.4067   -6.3401 C   0  0
   -3.1922   -3.3630   -5.0722 C   0  0
   -1.8733   -3.8451   -5.1123 C   0  0
   -0.8428   -3.1333   -5.7841 C   0  0
   -1.1952   -1.8957   -6.3856 C   0  0
    0.4867   -3.5809   -5.8810 C   0  0
    0.9790   -4.7511   -5.4270 C   0  0
    2.2912   -5.1660   -5.5696 C   0  0
    2.6352   -6.2575   -5.0553 O   0  0
    3.2098   -4.4280   -6.2617 O   0  0
    4.5768   -4.7923   -6.4863 C   0  0
    5.2468   -3.7375   -7.2777 C   0  0
    5.8103   -4.0163   -8.5450 C   0  0
    5.3281   -2.4214   -6.7672 C   0  0
    5.9506   -1.4028   -7.5118 C   0  0
    6.4982   -1.6896   -8.7755 C   0  0
    6.4341   -2.9978   -9.2888 C   0  0
   -4.8610    0.0973   -9.8946 H   0  0
   -6.0681   -0.6910  -11.1135 H   0  0
   -5.7795   -2.7007   -9.4110 H   0  0
   -5.3435   -3.1845   -7.0536 H   0  0
   -7.2866   -0.9384   -6.1008 H   0  0
   -7.9308   -3.2752   -8.0202 H   0  0
   -8.0043   -1.5668   -9.8643 H   0  0
   -8.6005   -1.1968   -2.7301 H   0  0
   -7.9454   -0.4700   -4.2171 H   0  0
   -9.5786   -1.1777   -4.2171 H   0  0
  -11.8389   -2.1066   -6.6903 H   0  0
  -12.0749   -1.1433   -8.1684 H   0  0
  -12.4575   -2.8817   -8.1684 H   0  0
   -8.5410    2.2915   -7.7446 H   0  0
   -7.6941    2.8828   -9.1942 H   0  0
   -9.4688    2.7454   -9.1942 H   0  0
   -1.8930   -2.3758  -11.9021 H   0  0
   -2.9883   -2.6001  -13.2871 H   0  0
   -1.8163   -1.2604  -13.2871 H   0  0
   -2.7553   -0.4478   -6.7991 H   0  0
   -3.9620   -3.9303   -4.5490 H   0  0
   -1.6458   -4.7873   -4.6138 H   0  0
   -0.4333   -1.3059   -6.8953 H   0  0
    1.2252   -2.9433   -6.3670 H   0  0
    0.2722   -5.4022   -4.9125 H   0  0
    5.0513   -4.8123   -5.5052 H   0  0
    4.5547   -5.6932   -7.0994 H   0  0
    5.7635   -5.0261   -8.9524 H   0  0
    4.9065   -2.1896   -5.7892 H   0  0
    6.0085   -0.3913   -7.1097 H   0  0
    6.9720   -0.8985   -9.3567 H   0  0
    6.8678   -3.2225  -10.2632 H   0  0
  1  2  1  0
  3  2  1  0
  3  4  1  0
  4  5  1  0
  5  6  1  0
  5  7  1  0
  7  8  1  0
  7  9  1  0
  9 10  1  0
  9 11  1  0
  3 11  1  0
 11 12  1  0
  8 13  1  0
 13 15  1  0
 13 14  2  0
 10 16  1  0
 16 17  1  0
 16 18  2  0
 12 19  1  0
 19 20  1  0
  1 22  1  0
 22 23  1  0
 22 24  2  0
 19 21  2  0
  6 25  1  0
 27 28  1  0
 28 29  2  0
 29 30  1  0
 26 30  2  0
 26 25  1  0
 25 27  2  0
 29 31  1  0
 31 32  2  0
 33 34  2  0
 33 35  1  0
 35 36  1  0
 36 37  1  0
 39 40  1  0
 40 41  2  0
 41 42  1  0
 38 42  2  0
 38 37  1  0
 37 39  2  0
 32 33  1  0
  2 43  1  0
  2 44  1  0
  3 45  1  0
  5 46  1  0
  7 47  1  0
  9 48  1  0
 11 49  1  0
 15 50  1  0
 15 51  1  0
 15 52  1  0
 17 53  1  0
 17 54  1  0
 17 55  1  0
 20 56  1  0
 20 57  1  0
 20 58  1  0
 23 59  1  0
 23 60  1  0
 23 61  1  0
 26 62  1  0
 27 63  1  0
 28 64  1  0
 30 65  1  0
 31 66  1  0
 32 67  1  0
 36 68  1  0
 36 69  1  0
 38 70  1  0
 39 71  1  0
 40 72  1  0
 41 73  1  0
 42 74  1  0
M  END
> <Name>
RCF2009 - Intermediário - (14)

$$$$
RCF2009 - Intermediário - (16)
  SciTegic12132405553D

 60 61  0  0  0  0            999 V2000
   -9.3658    3.8531   -4.6815 O   0  0
   -9.9914    3.9016   -3.3888 C   0  0
   -9.6517    2.6345   -2.5468 C   0  0  1  0  0  0
   -8.5186    2.9001   -1.6831 O   0  0
   -8.0681    1.7680   -0.8958 C   0  0  1  0  0  0
   -7.0067    2.1747   -0.0067 O   0  0
   -9.1971    1.1993    0.0059 C   0  0  2  0  0  0
   -8.7053   -0.0126    0.6107 O   0  0
  -10.4501    0.8930   -0.8560 C   0  0  1  0  0  0
  -11.5279    0.4464   -0.0152 O   0  0
  -10.8593    2.1425   -1.6911 C   0  0  1  0  0  0
  -11.2688    3.1980   -0.8036 O   0  0
   -8.5518   -0.3449    1.9302 C   0  0
   -7.8777   -1.3721    2.1699 O   0  0
   -9.1571    0.3938    3.0549 C   0  0
  -12.6366   -0.2471   -0.4241 C   0  0
  -13.6468   -0.6760    0.5522 C   0  0
  -12.8099   -0.5572   -1.6268 O   0  0
  -12.4701    3.8403   -0.7573 C   0  0
  -12.6641    4.9020    0.2358 C   0  0
  -13.4053    3.5543   -1.5411 O   0  0
   -8.6290    4.8129   -5.3140 C   0  0
   -8.1808    4.5410   -6.6875 C   0  0
   -8.3508    5.9047   -4.7646 O   0  0
   -5.7993    2.3479   -0.6219 C   0  0
   -4.8861    1.2737   -0.7017 C   0  0
   -5.4518    3.6048   -1.1517 C   0  0
   -4.2174    3.7819   -1.8006 C   0  0
   -3.3022    2.7097   -1.9221 C   0  0
   -3.6566    1.4546   -1.3688 C   0  0
   -2.0661    2.9137   -2.5831 C   0  0
   -1.2191    2.0028   -2.7292 O   0  0
   -5.2027    0.0515   -0.1666 O   0  0
   -4.7530   -0.1144    1.1916 C   0  0
   -9.5426    4.7621   -2.8925 H   0  0
  -11.0616    3.8881   -3.5948 H   0  0
   -9.3343    1.8373   -3.2189 H   0  0
   -7.6888    1.0576   -1.6304 H   0  0
   -9.4570    1.8702    0.8247 H   0  0
  -10.2714    0.0462   -1.5186 H   0  0
  -11.7274    1.9280   -2.3144 H   0  0
   -9.5500   -0.3139    3.7849 H   0  0
   -8.4006    1.0205    3.5271 H   0  0
   -9.9679    1.0205    2.6835 H   0  0
  -13.2679   -0.5151    1.5615 H   0  0
  -14.5588   -0.0963    0.4098 H   0  0
  -13.8632   -1.7347    0.4098 H   0  0
  -12.5871    4.4805    1.2381 H   0  0
  -11.8991    5.6672    0.1037 H   0  0
  -13.6501    5.3473    0.1037 H   0  0
   -8.1290    3.4638   -6.8462 H   0  0
   -8.8866    4.9787   -7.3934 H   0  0
   -7.1945    4.9787   -6.8412 H   0  0
   -6.1412    4.4440   -1.0592 H   0  0
   -3.9676    4.7593   -2.2132 H   0  0
   -2.9705    0.6124   -1.4580 H   0  0
   -1.7367    3.8569   -3.0189 H   0  0
   -4.6767   -1.1771    1.4218 H   0  0
   -3.7760    0.3541    1.3106 H   0  0
   -5.4658    0.3541    1.8702 H   0  0
  1  2  1  0
  3  2  1  0
  3  4  1  0
  4  5  1  0
  5  6  1  0
  5  7  1  0
  7  8  1  0
  7  9  1  0
  9 10  1  0
  9 11  1  0
  3 11  1  0
 11 12  1  0
  8 13  1  0
 13 15  1  0
 13 14  2  0
 10 16  1  0
 16 17  1  0
 16 18  2  0
 12 19  1  0
 19 20  1  0
  1 22  1  0
 22 23  1  0
 22 24  2  0
 19 21  2  0
  6 25  1  0
 27 28  1  0
 28 29  2  0
 29 30  1  0
 26 30  2  0
 26 25  1  0
 25 27  2  0
 29 31  1  0
 31 32  2  0
 26 33  1  0
 33 34  1  0
  2 35  1  0
  2 36  1  0
  3 37  1  0
  5 38  1  0
  7 39  1  0
  9 40  1  0
 11 41  1  0
 15 42  1  0
 15 43  1  0
 15 44  1  0
 17 45  1  0
 17 46  1  0
 17 47  1  0
 20 48  1  0
 20 49  1  0
 20 50  1  0
 23 51  1  0
 23 52  1  0
 23 53  1  0
 27 54  1  0
 28 55  1  0
 30 56  1  0
 31 57  1  0
 34 58  1  0
 34 59  1  0
 34 60  1  0
M  END
> <Name>
RCF2009 - Intermediário - (16)

$$$$
RCF2009 - Intermediário - (17)
  SciTegic12132405553D

 65 66  0  0  0  0            999 V2000
   -3.5880   -5.4842   -0.8476 O   0  0
   -4.3688   -4.9239    0.2222 C   0  0
   -4.6208   -5.9738    1.3431 C   0  0  1  0  0  0
   -3.6266   -5.8001    2.3824 O   0  0
   -3.6874   -6.7718    3.4555 C   0  0  1  0  0  0
   -2.7001   -6.4638    4.4629 O   0  0
   -5.0771   -6.7669    4.1491 C   0  0  2  0  0  0
   -5.1138   -7.8487    5.0981 O   0  0
   -6.1908   -6.9687    3.0835 C   0  0  1  0  0  0
   -7.4817   -6.9325    3.7174 O   0  0
   -6.0541   -5.9021    1.9558 C   0  0  1  0  0  0
   -6.2793   -4.5933    2.5125 O   0  0
   -5.3474   -7.8307    6.4439 C   0  0
   -5.1137   -8.8935    7.0617 O   0  0
   -5.8799   -6.6725    7.1823 C   0  0
   -8.6727   -7.3376    3.1797 C   0  0
   -9.9042   -7.2397    3.9713 C   0  0
   -8.7402   -7.8133    2.0219 O   0  0
   -7.2072   -3.6591    2.1545 C   0  0
   -7.2316   -2.3719    2.8622 C   0  0
   -8.0299   -3.8655    1.2319 O   0  0
   -2.3482   -5.1163   -1.2864 C   0  0
   -1.8057   -5.7812   -2.4815 C   0  0
   -1.6749   -4.2417   -0.6925 O   0  0
   -1.4177   -6.7686    4.0934 C   0  0
   -0.5784   -5.7901    3.5228 C   0  0
   -0.9212   -8.0671    4.3110 C   0  0
    0.3899   -8.3995    3.9281 C   0  0
    1.2445   -7.4449    3.3190 C   0  0
    0.7333   -6.1329    3.1346 C   0  0
    2.5340   -7.8424    2.9351 C   0  0
    3.3269   -7.2230    2.0387 C   0  0
   -1.0413   -4.5178    3.3177 O   0  0
   -0.7826   -3.6395    4.4270 C   0  0
    4.5805   -7.6755    1.6641 C   0  0
    5.1221   -8.8241    2.1389 O   0  0
    5.2571   -7.0203    0.8392 O   0  0
   -3.7467   -4.1324    0.6403 H   0  0
   -5.3307   -4.6802   -0.2289 H   0  0
   -4.4764   -6.9735    0.9333 H   0  0
   -3.4343   -7.7243    2.9899 H   0  0
   -5.2463   -5.8553    4.7222 H   0  0
   -6.1599   -7.9666    2.6462 H   0  0
   -6.8199   -6.0239    1.1898 H   0  0
   -5.7960   -6.8549    8.2537 H   0  0
   -5.3102   -5.7811    6.9198 H   0  0
   -6.9274   -6.5246    6.9198 H   0  0
   -9.6565   -7.2594    5.0326 H   0  0
  -10.4150   -6.3064    3.7346 H   0  0
  -10.5559   -8.0807    3.7346 H   0  0
   -7.2283   -2.5484    3.9378 H   0  0
   -6.3525   -1.7892    2.5870 H   0  0
   -8.1322   -1.8229    2.5870 H   0  0
   -1.8637   -6.8622   -2.3538 H   0  0
   -2.3862   -5.4870   -3.3560 H   0  0
   -0.7654   -5.4870   -2.6202 H   0  0
   -1.5558   -8.8198    4.7787 H   0  0
    0.7494   -9.4130    4.1063 H   0  0
    1.3650   -5.3681    2.6828 H   0  0
    2.9699   -8.7345    3.3847 H   0  0
    2.9339   -6.3089    1.5937 H   0  0
   -0.5747   -4.2314    5.3183 H   0  0
    0.0782   -3.0107    4.1995 H   0  0
   -1.6552   -3.0107    4.6038 H   0  0
    5.1148   -8.8086    3.0988 H   0  0
  1  2  1  0
  3  2  1  0
  3  4  1  0
  4  5  1  0
  5  6  1  0
  5  7  1  0
  7  8  1  0
  7  9  1  0
  9 10  1  0
  9 11  1  0
  3 11  1  0
 11 12  1  0
  8 13  1  0
 13 15  1  0
 13 14  2  0
 10 16  1  0
 16 17  1  0
 16 18  2  0
 12 19  1  0
 19 20  1  0
  1 22  1  0
 22 23  1  0
 22 24  2  0
 19 21  2  0
  6 25  1  0
 27 28  1  0
 28 29  2  0
 29 30  1  0
 26 30  2  0
 26 25  1  0
 25 27  2  0
 29 31  1  0
 31 32  2  0
 26 33  1  0
 33 34  1  0
 32 35  1  0
 35 36  1  0
 35 37  2  0
  2 38  1  0
  2 39  1  0
  3 40  1  0
  5 41  1  0
  7 42  1  0
  9 43  1  0
 11 44  1  0
 15 45  1  0
 15 46  1  0
 15 47  1  0
 17 48  1  0
 17 49  1  0
 17 50  1  0
 20 51  1  0
 20 52  1  0
 20 53  1  0
 23 54  1  0
 23 55  1  0
 23 56  1  0
 27 57  1  0
 28 58  1  0
 30 59  1  0
 31 60  1  0
 32 61  1  0
 34 62  1  0
 34 63  1  0
 34 64  1  0
 36 65  1  0
M  END
> <Name>
RCF2009 - Intermediário - (17)

$$$$
RCF2009 - Intermediário - (18)
  SciTegic12132405553D

 67 68  0  0  0  0            999 V2000
   13.9202   15.8726  -15.1648 O   0  0
   13.5690   16.2996  -13.8378 C   0  0
   13.8850   15.1868  -12.7966 C   0  0  1  0  0  0
   15.2146   15.4134  -12.2681 O   0  0
   15.6796   14.4208  -11.3232 C   0  0  1  0  0  0
   16.9703   14.8018  -10.8039 O   0  0
   14.7175   14.2945  -10.1109 C   0  0  2  0  0  0
   15.1665   13.1911   -9.3032 O   0  0
   13.2721   14.0291  -10.6103 C   0  0  1  0  0  0
   12.3779   13.9846   -9.4873 O   0  0
   12.8460   15.1247  -11.6330 C   0  0  1  0  0  0
   12.7956   16.4033  -10.9705 O   0  0
   15.5316   13.1568   -7.9876 C   0  0
   16.1207   12.1218   -7.6010 O   0  0
   15.2285   14.2229   -7.0142 C   0  0
   11.1017   13.4928   -9.4712 C   0  0
   10.3164   13.5534   -8.2323 C   0  0
   10.5939   12.9615  -10.4862 O   0  0
   11.7341   17.2524  -10.8381 C   0  0
   11.9109   18.5209  -10.1174 C   0  0
   10.6096   16.9804  -11.3202 O   0  0
   14.8468   16.3984  -16.0190 C   0  0
   14.9441   15.8246  -17.3697 C   0  0
   15.6047   17.3345  -15.6745 O   0  0
   18.0046   14.5945  -11.6768 C   0  0
   18.4857   15.6391  -12.4961 C   0  0
   18.6137   13.3256  -11.7344 C   0  0
   19.6623   13.0802  -12.6379 C   0  0
   20.1292   14.1042  -13.4940 C   0  0
   19.5355   15.3870  -13.4044 C   0  0
   21.2243   13.8445  -14.4673 C   0  0
   22.5679   14.4799  -14.0220 C   0  0
   17.9168   16.8840  -12.4391 O   0  0
   18.5615   17.7559  -11.4929 C   0  0
   23.6547   14.2199  -14.9843 C   0  0
   24.2434   15.2397  -15.6502 O   0  0
   24.0570   13.0533  -15.1965 O   0  0
   14.2226   17.1470  -13.6308 H   0  0
   12.4881   16.4383  -13.8618 H   0  0
   13.9042   14.2158  -13.2915 H   0  0
   15.7799   13.5028  -11.9024 H   0  0
   14.7416   15.1756   -9.4697 H   0  0
   13.1783   13.0408  -11.0604 H   0  0
   11.8366   14.9499  -12.0051 H   0  0
   15.3393   13.8332   -6.0023 H   0  0
   15.9172   15.0550   -7.1605 H   0  0
   14.2051   14.5682   -7.1605 H   0  0
   10.0993   12.5416   -7.8899 H   0  0
   10.8850   14.0817   -7.4671 H   0  0
    9.3817   14.0817   -8.4201 H   0  0
   11.8850   18.3353   -9.0436 H   0  0
   12.8708   18.9612  -10.3870 H   0  0
   11.1079   19.2069  -10.3870 H   0  0
   14.9393   14.7367  -17.3034 H   0  0
   14.0948   16.1560  -17.9672 H   0  0
   15.8702   16.1560  -17.8394 H   0  0
   18.2711   12.5280  -11.0752 H   0  0
   20.1161   12.0899  -12.6748 H   0  0
   19.8925   16.1933  -14.0451 H   0  0
   21.3665   12.7639  -14.4618 H   0  0
   20.9224   14.3499  -15.3847 H   0  0
   22.8718   13.9769  -13.1040 H   0  0
   22.4299   15.5611  -14.0310 H   0  0
   18.3226   17.4328  -10.4797 H   0  0
   19.6407   17.7186  -11.6412 H   0  0
   18.2095   18.7768  -11.6412 H   0  0
   24.6054   15.8668  -15.0199 H   0  0
  1  2  1  0
  3  2  1  0
  3  4  1  0
  4  5  1  0
  5  6  1  0
  5  7  1  0
  7  8  1  0
  7  9  1  0
  9 10  1  0
  9 11  1  0
  3 11  1  0
 11 12  1  0
  8 13  1  0
 13 15  1  0
 13 14  2  0
 10 16  1  0
 16 17  1  0
 16 18  2  0
 12 19  1  0
 19 20  1  0
  1 22  1  0
 22 23  1  0
 22 24  2  0
 19 21  2  0
  6 25  1  0
 27 28  1  0
 28 29  2  0
 29 30  1  0
 26 30  2  0
 26 25  1  0
 25 27  2  0
 29 31  1  0
 26 33  1  0
 33 34  1  0
 32 35  1  0
 35 36  1  0
 35 37  2  0
 31 32  1  0
  2 38  1  0
  2 39  1  0
  3 40  1  0
  5 41  1  0
  7 42  1  0
  9 43  1  0
 11 44  1  0
 15 45  1  0
 15 46  1  0
 15 47  1  0
 17 48  1  0
 17 49  1  0
 17 50  1  0
 20 51  1  0
 20 52  1  0
 20 53  1  0
 23 54  1  0
 23 55  1  0
 23 56  1  0
 27 57  1  0
 28 58  1  0
 30 59  1  0
 31 60  1  0
 31 61  1  0
 32 62  1  0
 32 63  1  0
 34 64  1  0
 34 65  1  0
 34 66  1  0
 36 67  1  0
M  END
> <Name>
RCF2009 - Intermediário - (18)

$$$$
RCF2009 - Intermediário - (19)
  SciTegic12132405553D

 77 79  0  0  0  0            999 V2000
    5.1432    1.7303    1.7079 O   0  0
    3.9348    1.6380    2.4768 C   0  0
    3.5673    0.1475    2.7427 C   0  0  1  0  0  0
    4.0412   -0.2427    4.0540 O   0  0
    3.8218   -1.6355    4.3971 C   0  0  1  0  0  0
    4.2828   -1.8930    5.7421 O   0  0
    2.3147   -2.0041    4.3393 C   0  0  2  0  0  0
    2.1924   -3.4231    4.5556 O   0  0
    1.7443   -1.6295    2.9451 C   0  0  1  0  0  0
    0.3387   -1.9274    2.8949 O   0  0
    2.0378   -0.1330    2.6268 C   0  0  1  0  0  0
    1.3281    0.7013    3.5592 O   0  0
    1.4932   -4.1036    5.5112 C   0  0
    1.7543   -5.3207    5.6357 O   0  0
    0.4404   -3.4973    6.3449 C   0  0
   -0.4186   -2.0692    1.7665 C   0  0
   -1.8440   -2.4013    1.8722 C   0  0
    0.0854   -1.9492    0.6239 O   0  0
    0.4006    1.6655    3.2924 C   0  0
   -0.1889    2.4132    4.4092 C   0  0
    0.0456    1.9361    2.1217 O   0  0
    6.3340    2.3048    2.0383 C   0  0
    7.3884    2.3280    1.0143 C   0  0
    6.5393    2.7890    3.1760 O   0  0
    5.6465   -1.8950    5.8355 C   0  0
    6.3486   -0.7204    6.1792 C   0  0
    6.3527   -3.0854    5.5749 C   0  0
    7.7572   -3.0908    5.5938 C   0  0
    8.4797   -1.9064    5.8692 C   0  0
    7.7577   -0.7285    6.1795 C   0  0
    9.9646   -1.9034    5.7845 C   0  0
   10.6518   -2.7258    6.9075 C   0  0
    5.6726    0.4365    6.4662 O   0  0
    5.3657    0.5708    7.8653 C   0  0
   12.1189   -2.7237    6.7479 C   0  0
   12.8970   -2.0698    7.6589 O   0  0
   12.6343   -3.3155    5.7710 O   0  0
   14.2014   -1.9427    7.5669 N   0  0
   14.8276   -0.9065    6.9858 C   0  0
   15.1005   -2.8188    8.0421 C   0  0
   16.4773   -2.3898    7.7831 C   0  0
   16.2860   -1.0458    7.0422 C   0  0
   14.2460    0.0665    6.4544 O   0  0
   14.8045   -3.8803    8.6375 O   0  0
    4.1721    2.1018    3.4343 H   0  0
    3.1607    2.0669    1.8405 H   0  0
    4.0963   -0.4830    2.0281 H   0  0
    4.4345   -2.2037    3.6972 H   0  0
    1.7387   -1.5262    5.1316 H   0  0
    2.1594   -2.2607    2.1594 H   0  0
    1.6586    0.1420    1.6426 H   0  0
    0.6847   -3.6380    7.3978 H   0  0
    0.3730   -2.4315    6.1268 H   0  0
   -0.5153   -3.9739    6.1268 H   0  0
   -2.1248   -2.4667    2.9234 H   0  0
   -2.4349   -1.6251    1.3859 H   0  0
   -2.0311   -3.3586    1.3859 H   0  0
   -0.5792    1.7140    5.1487 H   0  0
    0.5744    3.0404    4.8696 H   0  0
   -0.9997    3.0404    4.0388 H   0  0
    8.3647    2.3496    1.4985 H   0  0
    7.3108    1.4361    0.3925 H   0  0
    7.2715    3.2156    0.3925 H   0  0
    5.8104   -4.0056    5.3578 H   0  0
    8.2899   -4.0204    5.3934 H   0  0
    8.2959    0.1876    6.4227 H   0  0
   10.1960   -2.4030    4.8439 H   0  0
   10.2550   -0.8636    5.9352 H   0  0
   10.3467   -3.7647    6.7818 H   0  0
   10.4606   -2.2118    7.8495 H   0  0
    5.2676   -0.4185    8.3123 H   0  0
    6.1678    1.1163    8.3625 H   0  0
    4.4292    1.1163    7.9811 H   0  0
   16.9452   -2.1981    8.7488 H   0  0
   16.9194   -3.1124    7.0972 H   0  0
   16.6656   -0.2392    7.6693 H   0  0
   16.6421   -1.1532    6.0176 H   0  0
  1  2  1  0
  3  2  1  0
  3  4  1  0
  4  5  1  0
  5  6  1  0
  5  7  1  0
  7  8  1  0
  7  9  1  0
  9 10  1  0
  9 11  1  0
  3 11  1  0
 11 12  1  0
  8 13  1  0
 13 15  1  0
 13 14  2  0
 10 16  1  0
 16 17  1  0
 16 18  2  0
 12 19  1  0
 19 20  1  0
  1 22  1  0
 22 23  1  0
 22 24  2  0
 19 21  2  0
  6 25  1  0
 27 28  1  0
 28 29  2  0
 29 30  1  0
 26 30  2  0
 26 25  1  0
 25 27  2  0
 29 31  1  0
 26 33  1  0
 33 34  1  0
 32 35  1  0
 35 36  1  0
 35 37  2  0
 31 32  1  0
 36 38  1  0
 40 41  1  0
 41 42  1  0
 39 42  1  0
 39 38  1  0
 38 40  1  0
 39 43  2  0
 40 44  2  0
  2 45  1  0
  2 46  1  0
  3 47  1  0
  5 48  1  0
  7 49  1  0
  9 50  1  0
 11 51  1  0
 15 52  1  0
 15 53  1  0
 15 54  1  0
 17 55  1  0
 17 56  1  0
 17 57  1  0
 20 58  1  0
 20 59  1  0
 20 60  1  0
 23 61  1  0
 23 62  1  0
 23 63  1  0
 27 64  1  0
 28 65  1  0
 30 66  1  0
 31 67  1  0
 31 68  1  0
 32 69  1  0
 32 70  1  0
 34 71  1  0
 34 72  1  0
 34 73  1  0
 41 74  1  0
 41 75  1  0
 42 76  1  0
 42 77  1  0
M  END
> <Name>
RCF2009 - Intermediário - (19)

$$$$
RCF2009 - Intermediário - (20)
  SciTegic12132405553D

146149  0  0  0  0            999 V2000
  -12.4226   10.3191    0.9472 O   0  0
  -12.9304   11.0749    2.0558 C   0  0
  -12.6970   10.3101    3.3902 C   0  0  1  0  0  0
  -11.4890   10.7945    4.0319 O   0  0
  -11.1286   10.0887    5.2474 C   0  0  1  0  0  0
   -9.9543   10.6825    5.8448 O   0  0
  -12.2679   10.1638    6.3002 C   0  0  2  0  0  0
  -11.8993    9.3375    7.4195 O   0  0
  -13.5965    9.6537    5.6795 C   0  0  1  0  0  0
  -14.6533    9.7782    6.6455 O   0  0
  -13.9068   10.4294    4.3672 C   0  0  1  0  0  0
  -14.1299   11.8159    4.6765 O   0  0
  -11.7127    9.6714    8.7313 C   0  0
  -11.1820    8.7984    9.4536 O   0  0
  -12.1219   10.9550    9.3304 C   0  0
  -15.8613    9.1378    6.6265 C   0  0
  -16.8167    9.3491    7.7228 C   0  0
  -16.1697    8.3481    5.7033 O   0  0
  -15.2363   12.5788    4.4475 C   0  0
  -15.1983   13.9975    4.8201 C   0  0
  -16.2718   12.1082    3.9224 O   0  0
  -11.4526   10.6516    0.0513 C   0  0
  -11.2003    9.7185   -1.0541 C   0  0
  -10.7888   11.7087    0.1555 O   0  0
   -8.7866   10.3715    5.2018 C   0  0
   -8.2581   11.2291    4.2137 C   0  0
   -8.0923    9.1943    5.5454 C   0  0
   -6.9122    8.8427    4.8662 C   0  0
   -6.3924    9.6710    3.8438 C   0  0
   -7.0724   10.8733    3.5404 C   0  0
   -5.1712    9.2906    3.0844 C   0  0
   -3.8965   10.0343    3.5721 C   0  0
   -2.7200    9.7037    2.7384 C   0  0
   -2.1936   10.5898    2.0236 O   0  0
   -2.2461    8.4293    2.7466 N   0  0
   -0.2162    5.7248    0.9995 C   0  0
    0.0358    4.2179    1.2563 C   0  0
    0.4486    3.5729    0.0533 N   0  0
    0.7128    2.2455   -0.0688 C   0  0
    0.7153    1.4825    0.9270 O   0  0
    0.9834    1.6952   -1.4139 C   0  0
   -0.2607    1.7943   -2.3417 C   0  0
    5.2602    3.0858   -7.3263 O   0  0
    4.6527    2.6321   -8.5450 C   0  0
    4.1864    1.1541   -8.4142 C   0  0  1  0  0  0
    2.7745    1.1162   -8.0870 O   0  0
    2.2449   -0.2137   -7.8545 C   0  0  1  0  0  0
    0.8282   -0.1468   -7.5833 O   0  0
    2.4386   -1.1200   -9.0992 C   0  0  2  0  0  0
    2.0028   -2.4470   -8.7531 O   0  0
    3.9366   -1.1377   -9.5030 C   0  0  1  0  0  0
    4.1094   -1.9431  -10.6815 O   0  0
    4.4524    0.3170   -9.7043 C   0  0  1  0  0  0
    3.7556    0.9192  -10.8093 O   0  0
    0.9846   -3.1967   -9.2714 C   0  0
    0.7001   -4.2515   -8.6608 O   0  0
    0.2379   -2.8402  -10.4911 C   0  0
    5.2835   -2.4802  -11.1296 C   0  0
    5.2953   -3.3061  -12.3437 C   0  0
    6.3605   -2.3049  -10.5127 O   0  0
    4.2658    1.4263  -11.9672 C   0  0
    3.3429    2.0179  -12.9420 C   0  0
    5.4935    1.4108  -12.2159 O   0  0
    4.8929    4.1147   -6.5129 C   0  0
    5.7703    4.4295   -5.3787 C   0  0
    3.8472    4.7751   -6.7105 O   0  0
    0.5438    0.3303   -6.3330 C   0  0
    0.2872    1.7023   -6.1263 C   0  0
    0.4894   -0.5644   -5.2464 C   0  0
    0.2255   -0.0878   -3.9501 C   0  0
    0.0033    1.2903   -3.7181 C   0  0
    0.0322    2.1742   -4.8231 C   0  0
   -1.2117    7.9297    1.9027 C   0  0
   -0.9728    6.4191    2.1630 C   0  0
    0.3083    2.5800   -7.1764 O   0  0
   -0.9904    2.7649   -7.7666 C   0  0
   -8.9089   12.3853    3.8778 O   0  0
   -8.4666   13.5225    4.6414 C   0  0
  -12.3287   11.9834    2.0794 H   0  0
  -14.0056   11.1375    1.8879 H   0  0
  -12.5161    9.2577    3.1717 H   0  0
  -10.8887    9.0750    4.9268 H   0  0
  -12.3960   11.1713    6.6958 H   0  0
  -13.5672    8.5842    5.4715 H   0  0
  -14.8311   10.0790    3.9078 H   0  0
  -12.0959   10.8735   10.4170 H   0  0
  -11.4383   11.7406    9.0085 H   0  0
  -13.1341   11.1999    9.0085 H   0  0
  -17.1500    8.3843    8.1053 H   0  0
  -16.3334    9.9098    8.5229 H   0  0
  -17.6753    9.9098    7.3535 H   0  0
  -15.1959   14.0880    5.9064 H   0  0
  -14.2957   14.4554    4.4154 H   0  0
  -16.0750   14.5031    4.4154 H   0  0
  -11.2832    8.6941   -0.6909 H   0  0
  -11.9329    9.8843   -1.8440 H   0  0
  -10.1976    9.8843   -1.4479 H   0  0
   -8.4702    8.5522    6.3410 H   0  0
   -6.3962    7.9208    5.1343 H   0  0
   -6.6752   11.5381    2.7733 H   0  0
   -5.0203    8.2324    3.2976 H   0  0
   -5.3567    9.6194    2.0619 H   0  0
   -3.6626    9.6548    4.5667 H   0  0
   -4.0678   11.1002    3.4218 H   0  0
   -2.6881    7.8183    3.4184 H   0  0
    0.7681    6.1913    0.9590 H   0  0
   -0.8792    5.7756    0.1358 H   0  0
    0.8857    4.1284    1.9329 H   0  0
   -0.9171    3.7557    1.5141 H   0  0
    0.5652    4.1084   -0.7950 H   0  0
    1.7540    2.3385   -1.8388 H   0  0
    1.1841    0.6354   -1.2566 H   0  0
   -1.0156    1.1239   -1.9309 H   0  0
   -0.4813    2.8549   -2.4623 H   0  0
    3.7655    3.2535   -8.6670 H   0  0
    5.4493    2.6674   -9.2881 H   0  0
    4.7075    0.6916   -7.5759 H   0  0
    2.7572   -0.5762   -6.9633 H   0  0
    1.8218   -0.8085   -9.9422 H   0  0
    4.5524   -1.6452   -8.7604 H   0  0
    5.5069    0.3281   -9.9798 H   0  0
   -0.0759   -3.7495  -11.0037 H   0  0
   -0.6403   -2.2538  -10.2210 H   0  0
    0.8778   -2.2538  -11.1504 H   0  0
    5.2926   -4.3602  -12.0661 H   0  0
    4.4111   -3.0856  -12.9417 H   0  0
    6.1910   -3.0856  -12.9244 H   0  0
    2.5394    2.5330  -12.4155 H   0  0
    3.8821    2.7294  -13.5674 H   0  0
    2.9215    1.2309  -13.5674 H   0  0
    6.1223    3.5037   -4.9237 H   0  0
    6.6240    5.0093   -5.7297 H   0  0
    5.2161    5.0093   -4.6406 H   0  0
    0.6523   -1.6298   -5.4093 H   0  0
    0.1928   -0.7919   -3.1188 H   0  0
   -0.1452    3.2383   -4.6675 H   0  0
   -1.5970    8.0399    0.8891 H   0  0
   -0.3148    8.4696    2.2065 H   0  0
   -0.3133    6.3623    3.0290 H   0  0
   -1.9602    5.9588    2.1988 H   0  0
   -1.7359    2.8710   -6.9786 H   0  0
   -0.9843    3.6629   -8.3843 H   0  0
   -1.2351    1.9007   -8.3843 H   0  0
   -8.5526   13.3015    5.7053 H   0  0
   -7.4267   13.7410    4.3985 H   0  0
   -9.0856   14.3862    4.3985 H   0  0
  1  2  1  0
  3  2  1  0
  3  4  1  0
  4  5  1  0
  5  6  1  0
  5  7  1  0
  7  8  1  0
  7  9  1  0
  9 10  1  0
  9 11  1  0
  3 11  1  0
 11 12  1  0
  8 13  1  0
 13 15  1  0
 13 14  2  0
 10 16  1  0
 16 17  1  0
 16 18  2  0
 12 19  1  0
 19 20  1  0
  1 22  1  0
 22 23  1  0
 22 24  2  0
 19 21  2  0
  6 25  1  0
 27 28  1  0
 28 29  2  0
 29 30  1  0
 26 30  2  0
 26 25  1  0
 25 27  2  0
 29 31  1  0
 32 33  1  0
 33 35  1  0
 33 34  2  0
 31 32  1  0
 36 37  1  0
 37 38  1  0
 38 39  1  0
 39 41  1  0
 41 42  1  0
 43 44  1  0
 45 44  1  0
 45 46  1  0
 46 47  1  0
 47 48  1  0
 47 49  1  0
 49 50  1  0
 49 51  1  0
 51 52  1  0
 51 53  1  0
 45 53  1  0
 53 54  1  0
 50 55  1  0
 55 57  1  0
 55 56  2  0
 52 58  1  0
 58 59  1  0
 58 60  2  0
 54 61  1  0
 61 62  1  0
 43 64  1  0
 64 65  1  0
 64 66  2  0
 61 63  2  0
 48 67  1  0
 69 70  1  0
 70 71  2  0
 71 72  1  0
 68 72  2  0
 68 67  1  0
 67 69  2  0
 39 40  2  0
 35 73  1  0
 73 74  1  0
 74 36  1  0
 42 71  1  0
 68 75  1  0
 75 76  1  0
 26 77  1  0
 77 78  1  0
  2 79  1  0
  2 80  1  0
  3 81  1  0
  5 82  1  0
  7 83  1  0
  9 84  1  0
 11 85  1  0
 15 86  1  0
 15 87  1  0
 15 88  1  0
 17 89  1  0
 17 90  1  0
 17 91  1  0
 20 92  1  0
 20 93  1  0
 20 94  1  0
 23 95  1  0
 23 96  1  0
 23 97  1  0
 27 98  1  0
 28 99  1  0
 30100  1  0
 31101  1  0
 31102  1  0
 32103  1  0
 32104  1  0
 35105  1  0
 36106  1  0
 36107  1  0
 37108  1  0
 37109  1  0
 38110  1  0
 41111  1  0
 41112  1  0
 42113  1  0
 42114  1  0
 44115  1  0
 44116  1  0
 45117  1  0
 47118  1  0
 49119  1  0
 51120  1  0
 53121  1  0
 57122  1  0
 57123  1  0
 57124  1  0
 59125  1  0
 59126  1  0
 59127  1  0
 62128  1  0
 62129  1  0
 62130  1  0
 65131  1  0
 65132  1  0
 65133  1  0
 69134  1  0
 70135  1  0
 72136  1  0
 73137  1  0
 73138  1  0
 74139  1  0
 74140  1  0
 76141  1  0
 76142  1  0
 76143  1  0
 78144  1  0
 78145  1  0
 78146  1  0
M  END
> <Name>
RCF2009 - Intermediário - (20)

$$$$
RCF2009 - Intermediário - (22)
  SciTegic12132405553D

 35 35  0  0  0  0            999 V2000
    3.1831    7.7629   -6.0942 O   0  0
    1.8974    7.9319   -5.4747 C   0  0
    1.6476    6.7764   -4.4721 C   0  0  1  0  0  0
    2.6136    6.8655   -3.3984 O   0  0
    2.4630    5.9938   -2.3777 C   0  0
    1.2961    5.4177   -2.0435 C   0  0
    0.0783    5.6156   -2.8167 C   0  0  1  0  0  0
   -1.0175    5.8295   -1.9101 O   0  0
    0.1940    6.7420   -3.9010 C   0  0  1  0  0  0
   -0.2912    8.0246   -3.4556 O   0  0
    3.5121    7.6414   -7.4148 C   0  0
    4.7205    7.4310   -7.6645 O   0  0
    2.5510    7.7492   -8.5274 C   0  0
    0.0814    8.8231   -2.4106 C   0  0
   -0.5953   10.1132   -2.2293 C   0  0
    0.9721    8.4944   -1.5947 O   0  0
   -2.3486    5.7339   -2.2087 C   0  0
   -2.7346    5.4004   -3.3535 O   0  0
   -3.3568    5.9990   -1.1739 C   0  0
    1.9682    8.8606   -4.9085 H   0  0
    1.1717    7.8403   -6.2829 H   0  0
    1.8342    5.8278   -4.9755 H   0  0
    3.3411    5.7383   -1.7845 H   0  0
    1.3371    4.7937   -1.1508 H   0  0
   -0.1193    4.6651   -3.3121 H   0  0
   -0.5226    6.5819   -4.7066 H   0  0
    2.2650    6.7508   -8.8585 H   0  0
    1.6652    8.2882   -8.1914 H   0  0
    3.0122    8.2882   -9.3550 H   0  0
   -0.7038   10.3200   -1.1646 H   0  0
   -0.0041   10.9021   -2.6943 H   0  0
   -1.5804   10.0753   -2.6943 H   0  0
   -2.9060    5.8805   -0.1886 H   0  0
   -3.7300    7.0174   -1.2826 H   0  0
   -4.1826    5.2959   -1.2826 H   0  0
  1  2  1  0
  3  2  1  0
  3  4  1  0
  4  5  1  0
  6  7  1  0
  7  8  1  0
  7  9  1  0
  3  9  1  0
  9 10  1  0
  5  6  2  0
  1 11  1  0
 11 13  1  0
 11 12  2  0
 10 14  1  0
 14 15  1  0
 14 16  2  0
  8 17  1  0
 17 19  1  0
 17 18  2  0
  2 20  1  0
  2 21  1  0
  3 22  1  0
  5 23  1  0
  6 24  1  0
  7 25  1  0
  9 26  1  0
 13 27  1  0
 13 28  1  0
 13 29  1  0
 15 30  1  0
 15 31  1  0
 15 32  1  0
 19 33  1  0
 19 34  1  0
 19 35  1  0
M  END
> <Name>
RCF2009 - Intermediário - (22)

$$$$
RCF2009 - Intermediário - (25)
  SciTegic12132405553D

 39 39  0  0  0  0            999 V2000
   -2.6458    1.2764   -5.3225 O   0  0
   -3.1340    0.8984   -4.0271 C   0  0
   -2.8711   -0.6205   -3.8265 C   0  0  1  0  0  0
   -1.4977   -0.9616   -4.1349 O   0  0
   -0.5355   -0.6988   -3.0953 C   0  0  2  0  0  0
    1.2159   -1.1415   -3.7775 Br  0  0
   -0.8716   -1.5187   -1.8222 C   0  0  2  0  0  0
   -0.7772   -2.8812   -2.1116 N   0  0
   -2.3013   -1.1292   -1.3261 C   0  0  1  0  0  0
   -2.2999    0.1959   -0.7666 O   0  0
   -3.3607   -1.2339   -2.4684 C   0  0  1  0  0  0
   -4.6202   -0.6440   -2.0912 O   0  0
   -2.8031    2.4616   -5.9781 C   0  0
   -2.1272    2.6178   -7.0203 O   0  0
   -3.7523    3.5065   -5.5572 C   0  0
   -5.5758   -1.0716   -1.2115 C   0  0
   -5.6264   -2.4269   -0.6295 C   0  0
   -6.4857   -0.2551   -0.9418 O   0  0
   -1.7783    0.5556    0.4449 C   0  0
   -1.7769    1.9722    0.8280 C   0  0
   -1.3064   -0.3005    1.2306 O   0  0
   -0.7288   -3.7265   -1.3112 N   0  0
   -0.6793   -4.5709   -0.5163 N   0  0
   -2.5239    1.4492   -3.3112 H   0  0
   -4.2117    1.0581   -4.0613 H   0  0
   -3.4382   -1.1357   -4.6019 H   0  0
   -0.8343    0.3069   -2.7994 H   0  0
   -0.1302   -1.4052   -1.0313 H   0  0
   -2.5883   -1.7707   -0.4929 H   0  0
   -3.5944   -2.2905   -2.5988 H   0  0
   -3.7889    3.5468   -4.4686 H   0  0
   -3.4264    4.4713   -5.9458 H   0  0
   -4.7439    3.2744   -5.9458 H   0  0
   -5.6238   -2.3555    0.4582 H   0  0
   -6.5358   -2.9298   -0.9584 H   0  0
   -4.7571   -2.9963   -0.9584 H   0  0
   -1.7768    2.0547    1.9148 H   0  0
   -0.8865    2.4562    0.4268 H   0  0
   -2.6664    2.4580    0.4268 H   0  0
  1  2  1  0
  3  2  1  0
  3  4  1  0
  5  4  1  0
  5  6  1  0
  7  5  1  0
  7  8  1  0
  7  9  1  0
  9 10  1  0
  9 11  1  0
 11  3  1  0
 11 12  1  0
  1 13  1  0
 13 15  1  0
 13 14  2  0
 12 16  1  0
 16 17  1  0
 16 18  2  0
 10 19  1  0
 19 20  1  0
 19 21  2  0
  8 22  2  0
 22 23  2  0
  2 24  1  0
  2 25  1  0
  3 26  1  0
  5 27  1  0
  7 28  1  0
  9 29  1  0
 11 30  1  0
 15 31  1  0
 15 32  1  0
 15 33  1  0
 17 34  1  0
 17 35  1  0
 17 36  1  0
 20 37  1  0
 20 38  1  0
 20 39  1  0
M  END
> <Name>
RCF2009 - Intermediário - (25)

$$$$
RCF2009 - Intermediário - (26)
  SciTegic12132405553D

 56 57  0  0  0  0            999 V2000
   -2.3896    2.7609   -1.3918 O   0  0
   -3.0937    3.3501   -0.2866 C   0  0
   -3.3106    2.3132    0.8552 C   0  0  1  0  0  0
   -2.2952    2.5063    1.8701 O   0  0
   -2.3089    1.5377    2.9463 C   0  0  1  0  0  0
   -1.3238    1.9188    3.9315 O   0  0
   -3.6898    1.4950    3.6628 C   0  0  2  0  0  0
   -3.7037    0.4356    4.5753 N   0  0
   -4.8332    1.3075    2.6237 C   0  0  1  0  0  0
   -6.1092    1.3620    3.2888 O   0  0
   -4.7272    2.3831    1.5032 C   0  0  1  0  0  0
   -4.9413    3.6946    2.0626 O   0  0
   -1.1641    3.0759   -1.8958 C   0  0
   -0.4217    3.9244   -1.3473 O   0  0
   -0.7241    2.3758   -3.1109 C   0  0
   -5.9098    4.6044    1.7399 C   0  0
   -5.9402    5.9073    2.4187 C   0  0
   -6.7790    4.3596    0.8702 O   0  0
   -7.3201    0.9552    2.7972 C   0  0
   -8.5388    1.1347    3.5959 C   0  0
   -7.4219    0.4158    1.6709 O   0  0
   -3.8835    0.5519    5.7204 N   0  0
   -4.0660    0.6687    6.8606 N   0  0
   -0.0387    1.5933    3.5949 C   0  0
    2.6241    0.8564    2.9296 C   0  0
    1.7797   -0.0345    3.6342 C   0  0
    0.4649    0.3330    3.9695 C   0  0
    0.7933    2.5052    2.9099 C   0  0
    2.1093    2.1266    2.5689 C   0  0
    0.3266    3.7424    2.5494 O   0  0
    0.5677    4.7517    3.5470 C   0  0
    3.9464    0.4651    2.6069 C   0  0
    4.7382    1.2066    1.9798 O   0  0
   -2.4281    4.1270    0.0895 H   0  0
   -4.0721    3.6170   -0.6860 H   0  0
   -3.1685    1.3101    0.4530 H   0  0
   -2.0309    0.5870    2.4914 H   0  0
   -3.8537    2.3777    4.2809 H   0  0
   -4.8132    0.3111    2.1823 H   0  0
   -5.5161    2.2635    0.7606 H   0  0
   -0.7820    1.2991   -2.9509 H   0  0
   -1.3687    2.6545   -3.9444 H   0  0
    0.3049    2.6545   -3.3383 H   0  0
   -5.9366    5.7548    3.4980 H   0  0
   -5.0635    6.4875    2.1308 H   0  0
   -6.8430    6.4459    2.1308 H   0  0
   -8.2873    1.0977    4.6558 H   0  0
   -8.9873    2.1003    3.3624 H   0  0
   -9.2466    0.3393    3.3624 H   0  0
    2.1477   -1.0190    3.9232 H   0  0
   -0.1668   -0.3623    4.5222 H   0  0
    2.7380    2.8263    2.0182 H   0  0
    0.4630    4.3137    4.5397 H   0  0
    1.5769    5.1460    3.4284 H   0  0
   -0.1543    5.5596    3.4284 H   0  0
    4.3956   -0.4939    2.8648 H   0  0
  1  2  1  0
  3  2  1  0
  3  4  1  0
  5  4  1  0
  5  6  1  0
  5  7  1  0
  7  8  1  0
  7  9  1  0
  9 10  1  0
  9 11  1  0
 11  3  1  0
 11 12  1  0
  1 13  1  0
 13 15  1  0
 13 14  2  0
 12 16  1  0
 16 17  1  0
 16 18  2  0
 10 19  1  0
 19 20  1  0
 19 21  2  0
  8 22  2  0
 22 23  2  0
  6 24  1  0
 25 26  1  0
 26 27  2  0
 28 29  1  0
 25 29  2  0
 27 24  1  0
 24 28  2  0
 28 30  1  0
 30 31  1  0
 25 32  1  0
 32 33  2  0
  2 34  1  0
  2 35  1  0
  3 36  1  0
  5 37  1  0
  7 38  1  0
  9 39  1  0
 11 40  1  0
 15 41  1  0
 15 42  1  0
 15 43  1  0
 17 44  1  0
 17 45  1  0
 17 46  1  0
 20 47  1  0
 20 48  1  0
 20 49  1  0
 26 50  1  0
 27 51  1  0
 29 52  1  0
 31 53  1  0
 31 54  1  0
 31 55  1  0
 32 56  1  0
M  END
> <Name>
RCF2009 - Intermediário - (26)

$$$$
RCF2009 - Intermediário - (27)
  SciTegic12132405553D

 61 62  0  0  0  0            999 V2000
   -2.8052   -2.3834   -2.0123 O   0  0
   -3.4857   -1.8101   -0.8837 C   0  0
   -3.7743   -2.8695    0.2207 C   0  0  1  0  0  0
   -2.7048   -2.8528    1.1976 O   0  0
   -2.8130   -3.8432    2.2522 C   0  0  1  0  0  0
   -1.7296   -3.6364    3.1872 O   0  0
   -4.1564   -3.7055    3.0347 C   0  0  2  0  0  0
   -4.3295   -4.7531    3.9441 N   0  0
   -5.3529   -3.7042    2.0386 C   0  0  1  0  0  0
   -6.5772   -3.4565    2.7525 O   0  0
   -5.1384   -2.6315    0.9338 C   0  0  1  0  0  0
   -5.1415   -1.3242    1.5408 O   0  0
   -1.5692   -2.0843   -2.5071 C   0  0
   -0.7991   -1.2939   -1.9134 O   0  0
   -1.1491   -2.7268   -3.7619 C   0  0
   -5.9897   -0.2786    1.3106 C   0  0
   -5.8261    0.9675    2.0725 C   0  0
   -6.9092   -0.3556    0.4632 O   0  0
   -7.8546   -3.6677    2.3111 C   0  0
   -8.9950   -3.2774    3.1543 C   0  0
   -8.0834   -4.2106    1.2043 O   0  0
   -3.9504   -4.7524    5.0464 N   0  0
   -3.5800   -4.7569    6.1480 N   0  0
   -0.5134   -4.0928    2.7539 C   0  0
    2.0071   -5.1173    1.8872 C   0  0
    1.0681   -5.9402    2.5584 C   0  0
   -0.1702   -5.4360    2.9908 C   0  0
    0.4133   -3.2406    2.1145 C   0  0
    1.6539   -3.7565    1.6807 C   0  0
    0.1109   -1.9240    1.8848 O   0  0
    0.5030   -1.0481    2.9584 C   0  0
    3.2280   -5.6807    1.4800 C   0  0
    4.0521   -5.1902    0.5353 C   0  0
    5.2480   -5.7780    0.1560 C   0  0
    5.9698   -5.2200   -0.7010 O   0  0
    5.6835   -6.9576    0.6653 O   0  0
   -2.7814   -1.0867   -0.4729 H   0  0
   -4.4442   -1.4738   -1.2788 H   0  0
   -3.7699   -3.8651   -0.2231 H   0  0
   -2.7024   -4.8145    1.7700 H   0  0
   -4.1372   -2.8269    3.6796 H   0  0
   -5.4918   -4.6868    1.5878 H   0  0
   -5.9602   -2.6292    0.2178 H   0  0
   -1.1878   -3.8099   -3.6462 H   0  0
   -1.8180   -2.4233   -4.5672 H   0  0
   -0.1301   -2.4233   -4.0021 H   0  0
   -5.8550    0.7474    3.1397 H   0  0
   -4.8686    1.4238    1.8214 H   0  0
   -6.6335    1.6555    1.8214 H   0  0
   -8.7194   -3.3717    4.2047 H   0  0
   -9.2672   -2.2436    2.9415 H   0  0
   -9.8436   -3.9276    2.9415 H   0  0
    1.3043   -6.9874    2.7468 H   0  0
   -0.8683   -6.0904    3.5128 H   0  0
    2.3536   -3.0903    1.1760 H   0  0
    0.8165   -1.6427    3.8165 H   0  0
    1.3307   -0.4192    2.6304 H   0  0
   -0.3412   -0.4192    3.2411 H   0  0
    3.5746   -6.6013    1.9495 H   0  0
    3.7337   -4.2670    0.0511 H   0  0
    5.6686   -6.9171    1.6243 H   0  0
  1  2  1  0
  3  2  1  0
  3  4  1  0
  5  4  1  0
  5  6  1  0
  5  7  1  0
  7  8  1  0
  7  9  1  0
  9 10  1  0
  9 11  1  0
 11  3  1  0
 11 12  1  0
  1 13  1  0
 13 15  1  0
 13 14  2  0
 12 16  1  0
 16 17  1  0
 16 18  2  0
 10 19  1  0
 19 20  1  0
 19 21  2  0
  8 22  2  0
 22 23  2  0
  6 24  1  0
 25 26  1  0
 26 27  2  0
 28 29  1  0
 25 29  2  0
 27 24  1  0
 24 28  2  0
 28 30  1  0
 30 31  1  0
 25 32  1  0
 32 33  2  0
 33 34  1  0
 34 36  1  0
 34 35  2  0
  2 37  1  0
  2 38  1  0
  3 39  1  0
  5 40  1  0
  7 41  1  0
  9 42  1  0
 11 43  1  0
 15 44  1  0
 15 45  1  0
 15 46  1  0
 17 47  1  0
 17 48  1  0
 17 49  1  0
 20 50  1  0
 20 51  1  0
 20 52  1  0
 26 53  1  0
 27 54  1  0
 29 55  1  0
 31 56  1  0
 31 57  1  0
 31 58  1  0
 32 59  1  0
 33 60  1  0
 36 61  1  0
M  END
> <Name>
RCF2009 - Intermediário - (27)

$$$$
RCF2009 - Intermediário - (28)
  SciTegic12132405553D

134137  0  0  0  0            999 V2000
    0.9665    2.9880   -8.0519 O   0  0
    0.9353    1.6259   -7.5952 C   0  0
   -0.1181    1.4241   -6.4675 C   0  0  1  0  0  0
   -1.3673    0.9793   -7.0523 O   0  0
   -2.4673    0.8152   -6.1222 C   0  0  1  0  0  0
   -3.5990    0.2526   -6.8229 O   0  0
   -2.1060   -0.1684   -4.9656 C   0  0  2  0  0  0
   -3.0956   -0.1967   -3.9781 N   0  0
   -0.7630    0.2570   -4.3097 C   0  0  1  0  0  0
   -0.3846   -0.7018   -3.3069 O   0  0
    0.3508    0.4090   -5.3829 C   0  0  1  0  0  0
    0.6122   -0.8712   -5.9923 O   0  0
   -4.1311   -0.7194   -4.0863 N   0  0
   -5.1648   -1.2395   -4.1904 N   0  0
    0.5219   -0.5157   -2.2990 C   0  0
    0.8326   -1.6244   -1.3835 C   0  0
    1.0880    0.5908   -2.1270 O   0  0
    1.7878   -1.5661   -6.0368 C   0  0
    1.8381   -2.8730   -6.7080 C   0  0
    2.8349   -1.1133   -5.5190 O   0  0
    0.6372    3.4899   -9.2770 C   0  0
    0.8789    4.9184   -9.5289 C   0  0
    0.1296    2.7686  -10.1674 O   0  0
   -4.2848    1.1394   -7.6057 C   0  0
   -3.9945    1.2646   -8.9813 C   0  0
   -5.3172    1.9095   -7.0352 C   0  0
   -6.0275    2.8350   -7.8194 C   0  0
   -5.7249    2.9975   -9.1909 C   0  0
   -4.7124    2.1932   -9.7625 C   0  0
   -6.4501    3.9961  -10.0190 C   0  0
   -7.6190    3.3621  -10.8219 C   0  0
   -8.3199    4.3795  -11.6327 C   0  0
   -8.2502    4.3362  -12.8845 O   0  0
   -8.9970    5.3679  -10.9911 N   0  0
  -10.5034    8.8558  -11.1044 C   0  0
  -11.1623    9.7931  -10.0602 C   0  0
  -11.0270   11.1524  -10.4742 N   0  0
  -11.4357   12.2375   -9.7639 C   0  0
  -12.0709   12.1099   -8.6895 O   0  0
  -11.0978   13.5915  -10.2597 C   0  0
   -9.5609   13.8310  -10.2979 C   0  0
  -11.2838   17.6047  -16.7111 O   0  0
  -10.2828   18.6361  -16.6776 C   0  0
  -10.3413   19.4597  -15.3581 C   0  0  1  0  0  0
   -9.3687   18.9319  -14.4258 O   0  0
   -9.3514   19.5584  -13.1187 C   0  0  1  0  0  0
   -8.2732   18.9831  -12.3454 O   0  0
   -9.1000   21.0964  -13.2214 C   0  0  2  0  0  0
   -9.2330   21.7320  -11.9830 N   0  0
  -10.1137   21.7249  -14.2213 C   0  0  1  0  0  0
   -9.8380   23.1236  -14.4110 O   0  0
  -10.0794   20.9792  -15.5841 C   0  0  1  0  0  0
   -8.7889   21.1766  -16.1980 O   0  0
   -8.5012   21.6094  -11.0846 N   0  0
   -7.7729   21.4836  -10.1881 N   0  0
  -10.6961   24.0623  -14.9133 C   0  0
  -10.2435   25.4505  -15.0595 C   0  0
  -11.8750   23.7735  -15.2270 O   0  0
   -8.5002   21.7752  -17.3925 C   0  0
   -7.1008   21.8919  -17.8296 C   0  0
   -9.4054   22.2276  -18.1314 O   0  0
  -11.1240   16.2484  -16.7382 C   0  0
  -12.3213   15.4108  -16.9117 C   0  0
   -9.9977   15.7145  -16.6061 O   0  0
   -8.5479   17.7362  -11.8574 C   0  0
   -8.1714   16.5787  -12.5712 C   0  0
   -9.2006   17.6135  -10.6159 C   0  0
   -9.5217   16.3429  -10.1077 C   0  0
   -9.1960   15.1723  -10.8313 C   0  0
   -8.5113   15.3078  -12.0625 C   0  0
   -9.5838    6.5021  -11.6233 C   0  0
  -10.2464    7.4233  -10.5668 C   0  0
   -2.9970    0.5234   -9.5551 O   0  0
   -3.4589   -0.7169  -10.1187 C   0  0
   -7.5135   16.6785  -13.7687 O   0  0
   -6.0811   16.6330  -13.6370 C   0  0
    0.6104    1.0483   -8.4606 H   0  0
    1.9213    1.4532   -7.1636 H   0  0
   -0.3259    2.3815   -5.9897 H   0  0
   -2.7071    1.8210   -5.7771 H   0  0
   -2.1000   -1.1964   -5.3280 H   0  0
   -0.8761    1.1910   -3.7592 H   0  0
    1.2993    0.7083   -4.9372 H   0  0
    0.7368   -1.2825   -0.3530 H   0  0
    0.1387   -2.4464   -1.5596 H   0  0
    1.8526   -1.9660   -1.5596 H   0  0
    1.8685   -3.6649   -5.9595 H   0  0
    0.9521   -2.9958   -7.3310 H   0  0
    2.7308   -2.9275   -7.3310 H   0  0
    0.9681    5.4449   -8.5787 H   0  0
    1.8015    5.0360  -10.0974 H   0  0
    0.0465    5.3330  -10.0974 H   0  0
   -5.5679    1.7886   -5.9813 H   0  0
   -6.8174    3.4302   -7.3613 H   0  0
   -4.4814    2.2907  -10.8233 H   0  0
   -6.1643    5.0479  -10.0352 H   0  0
   -7.9161    2.3134  -10.8168 H   0  0
   -9.0678    5.2534   -9.9902 H   0  0
  -11.2295    8.7481  -11.9102 H   0  0
   -9.5206    9.2801  -11.3094 H   0  0
  -12.2349    9.5991  -10.0602 H   0  0
  -10.5950    9.7184   -9.1325 H   0  0
  -10.5973   11.3690  -11.3623 H   0  0
  -11.8667   14.3062  -10.5531 H   0  0
   -8.8019   13.1175   -9.9772 H   0  0
   -9.3327   18.1021  -16.6928 H   0  0
  -10.5452   19.3050  -17.4973 H   0  0
  -11.3194   19.3326  -14.8942 H   0  0
  -10.3070   19.3136  -12.6551 H   0  0
   -8.0598   21.3004  -13.4754 H   0  0
  -11.1193   21.7062  -13.8012 H   0  0
  -10.7986   21.3960  -16.2892 H   0  0
  -10.0997   25.8916  -14.0732 H   0  0
   -9.3011   25.4697  -15.6070 H   0  0
  -10.9934   26.0215  -15.6070 H   0  0
   -6.4507   21.9461  -16.9563 H   0  0
   -6.8334   21.0211  -18.4282 H   0  0
   -6.9813   22.7949  -18.4282 H   0  0
  -12.7162   15.1346  -15.9340 H   0  0
  -13.0775   15.9680  -17.4647 H   0  0
  -12.0572   14.5095  -17.4647 H   0  0
   -9.4584   18.5061  -10.0459 H   0  0
  -10.0271   16.2646   -9.1451 H   0  0
   -8.2408   14.4170  -12.6293 H   0  0
   -8.7484    7.0434  -12.0674 H   0  0
  -10.3706    6.0969  -12.2596 H   0  0
  -11.2282    6.9948  -10.3652 H   0  0
   -9.5214    7.5281   -9.7597 H   0  0
   -3.7161   -1.4074   -9.3155 H   0  0
   -4.3393   -0.5309  -10.7338 H   0  0
   -2.6713   -1.1521  -10.7338 H   0  0
   -5.8135   16.6245  -12.5804 H   0  0
   -5.7007   15.7305  -14.1154 H   0  0
   -5.6442   17.5096  -14.1154 H   0  0
  1  2  1  0
  3  2  1  0
  3  4  1  0
  5  4  1  0
  5  6  1  0
  7  5  1  0
  7  8  1  0
  7  9  1  0
  9 10  1  0
  9 11  1  0
 11  3  1  0
 11 12  1  0
 10 15  1  0
 15 16  1  0
 15 17  2  0
 12 18  1  0
 18 19  1  0
  1 21  1  0
 21 22  1  0
 21 23  2  0
 18 20  2  0
  6 24  1  0
 26 27  1  0
 27 28  2  0
 28 29  1  0
 25 29  2  0
 25 24  1  0
 24 26  2  0
 28 30  1  0
 31 32  1  0
 32 34  1  0
 32 33  2  0
 35 36  1  0
 36 37  1  0
 37 38  1  0
 38 40  1  0
 42 43  1  0
 44 43  1  0
 44 45  1  0
 46 45  1  0
 46 47  1  0
 48 46  1  0
 48 49  1  0
 48 50  1  0
 50 51  1  0
 50 52  1  0
 52 44  1  0
 52 53  1  0
 54 55  2  0
 51 56  1  0
 56 57  1  0
 56 58  2  0
 53 59  1  0
 59 60  1  0
 42 62  1  0
 62 63  1  0
 62 64  2  0
 59 61  2  0
 47 65  1  0
 67 68  1  0
 68 69  2  0
 69 70  1  0
 66 70  2  0
 66 65  1  0
 65 67  2  0
 38 39  2  0
 34 71  1  0
 71 72  1  0
 72 35  1  0
 41 69  1  0
 13 14  2  0
  8 13  2  0
 49 54  2  0
 25 73  1  0
 73 74  1  0
 66 75  1  0
 75 76  1  0
 40 41  2  0
 30 31  2  0
  2 77  1  0
  2 78  1  0
  3 79  1  0
  5 80  1  0
  7 81  1  0
  9 82  1  0
 11 83  1  0
 16 84  1  0
 16 85  1  0
 16 86  1  0
 19 87  1  0
 19 88  1  0
 19 89  1  0
 22 90  1  0
 22 91  1  0
 22 92  1  0
 26 93  1  0
 27 94  1  0
 29 95  1  0
 30 96  1  0
 31 97  1  0
 34 98  1  0
 35 99  1  0
 35100  1  0
 36101  1  0
 36102  1  0
 37103  1  0
 40104  1  0
 41105  1  0
 43106  1  0
 43107  1  0
 44108  1  0
 46109  1  0
 48110  1  0
 50111  1  0
 52112  1  0
 57113  1  0
 57114  1  0
 57115  1  0
 60116  1  0
 60117  1  0
 60118  1  0
 63119  1  0
 63120  1  0
 63121  1  0
 67122  1  0
 68123  1  0
 70124  1  0
 71125  1  0
 71126  1  0
 72127  1  0
 72128  1  0
 74129  1  0
 74130  1  0
 74131  1  0
 76132  1  0
 76133  1  0
 76134  1  0
M  END
> <Name>
RCF2009 - Intermediário - (28)

$$$$
RCF2009 - Intermediário - (30)
  SciTegic12132405553D

 41 42  0  0  0  0            999 V2000
   -5.1420   -3.5102   -2.7353 O   0  0
   -6.1429   -3.2155   -1.7639 C   0  0
   -6.0898   -4.2423   -0.6039 C   0  0  1  0  0  0
   -4.7913   -4.1437    0.0196 O   0  0
   -4.5245   -5.1182    1.0584 C   0  0  1  0  0  0
   -3.1901   -4.9062    1.5779 O   0  0
   -5.5607   -4.9809    2.2078 C   0  0  2  0  0  0
   -5.3557   -6.0016    3.1847 O   0  0
   -7.0059   -5.0500    1.6353 C   0  0  1  0  0  0
   -7.9623   -4.8189    2.6692 O   0  0
   -7.1967   -4.0315    0.4740 C   0  0  1  0  0  0
   -7.1440   -2.7050    1.0042 O   0  0
   -2.2274   -5.1561    0.6329 C   0  0
   -1.7539   -6.4652    0.4262 C   0  0
   -1.7254   -4.1098   -0.1614 C   0  0
   -0.8106   -4.3842   -1.1926 C   0  0
   -0.3458   -5.7007   -1.4514 C   0  0
   -0.8384   -6.7335   -0.6084 C   0  0
    0.5633   -5.9004   -2.5045 C   0  0
    1.1248   -7.0652   -2.8822 C   0  0
    2.0364   -7.1987   -3.9169 C   0  0
    2.5091   -8.3255   -4.1914 O   0  0
    2.4678   -6.1528   -4.6643 O   0  0
   -4.3257   -3.7505   -2.2909 H   0  0
   -5.8702   -2.2393   -1.3629 H   0  0
   -7.0912   -3.3448   -2.2856 H   0  0
   -6.1939   -5.2478   -1.0115 H   0  0
   -4.5478   -6.1022    0.5902 H   0  0
   -5.4074   -4.0584    2.7678 H   0  0
   -5.4317   -5.6232    4.0637 H   0  0
   -7.2342   -6.0598    1.2944 H   0  0
   -8.2763   -5.6602    3.0085 H   0  0
   -8.1869   -4.1027    0.0240 H   0  0
   -7.1456   -2.7436    1.9634 H   0  0
   -2.0977   -7.2747    1.0702 H   0  0
   -2.0459   -3.0844    0.0227 H   0  0
   -0.4535   -3.5568   -1.8059 H   0  0
   -0.5048   -7.7601   -0.7596 H   0  0
    0.8718   -5.0438   -3.1040 H   0  0
    0.8247   -7.9490   -2.3191 H   0  0
    2.7599   -5.4448   -4.0854 H   0  0
  1  2  1  0
  3  2  1  0
  3  4  1  0
  4  5  1  0
  5  6  1  0
  5  7  1  0
  7  8  1  0
  7  9  1  0
  9 10  1  0
  9 11  1  0
  3 11  1  0
 11 12  1  0
  6 13  1  0
 15 16  1  0
 16 17  2  0
 17 18  1  0
 14 18  2  0
 14 13  1  0
 13 15  2  0
 17 19  1  0
 19 20  2  0
 20 21  1  0
 21 23  1  0
 21 22  2  0
  1 24  1  0
  2 25  1  0
  2 26  1  0
  3 27  1  0
  5 28  1  0
  7 29  1  0
  8 30  1  0
  9 31  1  0
 10 32  1  0
 11 33  1  0
 12 34  1  0
 14 35  1  0
 15 36  1  0
 16 37  1  0
 18 38  1  0
 19 39  1  0
 20 40  1  0
 23 41  1  0
M  END
> <Name>
RCF2009 - Intermediário - (30)

$$$$
RCF2009 - Intermediário - (31)
  SciTegic12132405553D

 43 44  0  0  0  0            999 V2000
   -4.4317   -3.7637   -3.3886 O   0  0
   -5.6734   -3.4307   -2.7723 C   0  0
   -5.9441   -4.3625   -1.5635 C   0  0  1  0  0  0
   -4.8814   -4.1700   -0.6053 O   0  0
   -4.9134   -5.0514    0.5445 C   0  0  1  0  0  0
   -3.7876   -4.7526    1.4040 O   0  0
   -6.2381   -4.8627    1.3338 C   0  0  2  0  0  0
   -6.3109   -5.7971    2.4108 O   0  0
   -7.4565   -5.0271    0.3799 C   0  0  1  0  0  0
   -8.6726   -4.7510    1.0740 O   0  0
   -7.3169   -4.1086   -0.8688 C   0  0  1  0  0  0
   -7.4349   -2.7442   -0.4591 O   0  0
   -2.5907   -5.0403    0.7982 C   0  0
   -2.0623   -6.3439    0.8464 C   0  0
   -1.8938   -4.0413    0.0956 C   0  0
   -0.7177   -4.3617   -0.6042 C   0  0
   -0.1824   -5.6769   -0.6076 C   0  0
   -0.8846   -6.6585    0.1431 C   0  0
    0.9936   -5.9248   -1.3362 C   0  0
    1.6538   -7.0946   -1.4382 C   0  0
    2.8262   -7.2751   -2.1540 C   0  0
    3.3712   -8.4021   -2.1862 O   0  0
    3.4421   -6.2753   -2.8321 O   0  0
   -3.7751   -3.9398   -2.7108 H   0  0
   -5.5392   -2.4174   -2.3937 H   0  0
   -6.4297   -3.6336   -3.5306 H   0  0
   -5.9146   -5.3995   -1.8977 H   0  0
   -4.7892   -6.0688    0.1736 H   0  0
   -6.2635   -3.8949    1.8346 H   0  0
   -6.2873   -6.6909    2.0612 H   0  0
   -7.5649   -6.0677    0.0742 H   0  0
   -8.5161   -4.7866    2.0205 H   0  0
   -8.1348   -4.2495   -1.5755 H   0  0
   -7.4389   -2.6972    0.4997 H   0  0
   -2.5673   -7.1130    1.4309 H   0  0
   -2.2659   -3.0168    0.0934 H   0  0
   -0.2090   -3.5720   -1.1571 H   0  0
   -0.5094   -7.6812    0.1804 H   0  0
    0.7059   -5.7412   -2.3714 H   0  0
    1.7391   -5.2902   -0.8570 H   0  0
    0.9315   -7.7353   -1.9441 H   0  0
    1.9372   -7.3018   -0.4063 H   0  0
    3.8248   -5.6540   -2.2083 H   0  0
  1  2  1  0
  3  2  1  0
  3  4  1  0
  4  5  1  0
  5  6  1  0
  5  7  1  0
  7  8  1  0
  7  9  1  0
  9 10  1  0
  9 11  1  0
  3 11  1  0
 11 12  1  0
  6 13  1  0
 15 16  1  0
 16 17  2  0
 17 18  1  0
 14 18  2  0
 14 13  1  0
 13 15  2  0
 17 19  1  0
 20 21  1  0
 21 23  1  0
 21 22  2  0
 19 20  1  0
  1 24  1  0
  2 25  1  0
  2 26  1  0
  3 27  1  0
  5 28  1  0
  7 29  1  0
  8 30  1  0
  9 31  1  0
 10 32  1  0
 11 33  1  0
 12 34  1  0
 14 35  1  0
 15 36  1  0
 16 37  1  0
 18 38  1  0
 19 39  1  0
 19 40  1  0
 20 41  1  0
 20 42  1  0
 23 43  1  0
M  END
> <Name>
RCF2009 - Intermediário - (31)

$$$$
RCF2009 - Intermediário - (35)
  SciTegic12132405553D

 75 76  0  0  0  0            999 V2000
   -0.8463   -0.8537    5.5408 O   0  0
   -1.7043   -0.1427    6.4435 C   0  0
   -2.1033   -1.0389    7.6519 C   0  0  1  0  0  0
   -1.1736   -0.8381    8.7479 O   0  0
   -1.4186   -1.6711    9.9122 C   0  0  1  0  0  0
   -0.4940   -1.3434   10.9711 O   0  0
   -2.8464   -1.4522   10.4827 C   0  0  2  0  0  0
   -3.0623   -2.4125   11.5329 O   0  0
   -3.8920   -1.6663    9.3545 C   0  0  1  0  0  0
   -5.2099   -1.4070    9.8642 O   0  0
   -3.5631   -0.7663    8.1298 C   0  0  1  0  0  0
   -3.6795    0.6132    8.5165 O   0  0
    0.7759   -1.7945   10.7409 C   0  0
    1.7307   -0.9636   10.1159 C   0  0
    1.1382   -3.0943   11.1485 C   0  0
    2.4288   -3.5853   10.8861 C   0  0
    3.3768   -2.7852   10.2065 C   0  0
    3.0162   -1.4679    9.8385 C   0  0
    4.7258   -3.3181    9.8846 C   0  0
    5.7038   -3.1989   11.0837 C   0  0
    7.0548   -3.6833   10.7357 C   0  0
    8.0068   -2.8673   10.6945 O   0  0
    7.2434   -5.0016   10.4607 N   0  0
    8.4947   -5.5666   10.0793 C   0  0
    8.3776   -7.0864    9.8522 C   0  0
    9.6381   -7.6173    9.4518 O   0  0
    0.3681   -0.4935    5.0401 C   0  0
    0.9502    0.5614    5.3862 O   0  0
    0.9739   -1.3961    4.0539 C   0  0
   -4.4729    1.5897    7.9934 C   0  0
   -4.3680    2.9436    8.5513 C   0  0
   -5.2576    1.3706    7.0408 O   0  0
   -6.3971   -1.7850    9.3049 C   0  0
   -7.6598   -1.4204    9.9547 C   0  0
   -6.4344   -2.4524    8.2461 O   0  0
   -3.3710   -2.2216   12.8491 C   0  0
   -3.8774   -0.9571   13.4132 C   0  0
   -3.2458   -3.2197   13.5933 O   0  0
    1.4136    0.3193    9.7542 O   0  0
    1.6869    1.2753   10.7950 C   0  0
   -1.0963    0.6791    6.8220 H   0  0
   -2.6066    0.0666    5.8690 H   0  0
   -2.0031   -2.0876    7.3720 H   0  0
   -1.2282   -2.6881    9.5693 H   0  0
   -2.9637   -0.4697   10.9399 H   0  0
   -3.9349   -2.7093    9.0406 H   0  0
   -4.2834   -0.9133    7.3250 H   0  0
    0.4163   -3.7232   11.6695 H   0  0
    2.6957   -4.5909   11.2111 H   0  0
    3.7413   -0.8306    9.3324 H   0  0
    4.5795   -4.3819    9.6974 H   0  0
    5.1106   -2.6735    9.0943 H   0  0
    5.3454   -3.8744   11.8605 H   0  0
    5.8235   -2.1369   11.2978 H   0  0
    6.4221   -5.5838   10.5431 H   0  0
    8.7315   -5.1043    9.1210 H   0  0
    9.1481   -5.4078   10.9372 H   0  0
    8.1603   -7.5549   10.8121 H   0  0
    7.7140   -7.2503    9.0032 H   0  0
   10.1555   -7.8352   10.2305 H   0  0
    1.5087   -2.1929    4.5710 H   0  0
    0.1926   -1.8289    3.4292 H   0  0
    1.6705   -0.8369    3.4292 H   0  0
   -4.3722    2.8893    9.6400 H   0  0
   -3.4397    3.4047    8.2141 H   0  0
   -5.2143    3.5421    8.2141 H   0  0
   -7.5352   -1.4564   11.0369 H   0  0
   -7.9446   -0.4119    9.6551 H   0  0
   -8.4384   -2.1220    9.6551 H   0  0
   -3.8560   -1.0105   14.5017 H   0  0
   -3.2492   -0.1321   13.0775 H   0  0
   -4.9015   -0.7939   13.0775 H   0  0
    1.9291    0.7483   11.7179 H   0  0
    2.5300    1.9007   10.5017 H   0  0
    0.8084    1.9007   10.9536 H   0  0
  1  2  1  0
  3  2  1  0
  3  4  1  0
  5  4  1  0
  5  6  1  0
  7  5  1  0
  7  8  1  0
  7  9  1  0
  9 10  1  0
  9 11  1  0
 11  3  1  0
 11 12  1  0
  6 13  1  0
 15 16  1  0
 16 17  2  0
 17 18  1  0
 14 18  2  0
 14 13  1  0
 13 15  2  0
 17 19  1  0
 20 21  1  0
 21 23  1  0
 21 22  2  0
 19 20  1  0
 23 24  1  0
 24 25  1  0
 25 26  1  0
  1 27  1  0
 27 29  1  0
 27 28  2  0
 12 30  1  0
 30 31  1  0
 30 32  2  0
 10 33  1  0
 33 34  1  0
 33 35  2  0
  8 36  1  0
 36 37  1  0
 36 38  2  0
 14 39  1  0
 39 40  1  0
  2 41  1  0
  2 42  1  0
  3 43  1  0
  5 44  1  0
  7 45  1  0
  9 46  1  0
 11 47  1  0
 15 48  1  0
 16 49  1  0
 18 50  1  0
 19 51  1  0
 19 52  1  0
 20 53  1  0
 20 54  1  0
 23 55  1  0
 24 56  1  0
 24 57  1  0
 25 58  1  0
 25 59  1  0
 26 60  1  0
 29 61  1  0
 29 62  1  0
 29 63  1  0
 31 64  1  0
 31 65  1  0
 31 66  1  0
 34 67  1  0
 34 68  1  0
 34 69  1  0
 37 70  1  0
 37 71  1  0
 37 72  1  0
 40 73  1  0
 40 74  1  0
 40 75  1  0
M  END
> <Name>
RCF2009 - Intermediário - (35)

$$$$
RCF2009 - Intermediário - (38)
  SciTegic12132405553D

 29 28  0  0  0  0            999 V2000
   -0.4107    0.7210    1.2949 C   0  0
   -1.8018    0.5796    2.0205 C   0  0
   -2.0780   -0.7618    2.5546 N   0  0
   -0.2713    2.2000    0.7817 C   0  0
   -1.2983    2.5952   -0.1964 N   0  0
    0.7188    0.4137    2.3482 C   0  0
    2.1037    0.5528    1.8780 N   0  0
   -0.3607   -0.2881    0.0915 C   0  0
    0.8458   -0.2305   -0.7468 N   0  0
   -1.7681    1.2193    2.9024 H   0  0
   -2.5726    0.7330    1.2651 H   0  0
   -2.0715   -0.7301    3.5641 H   0  0
   -2.9839   -1.0722    2.2334 H   0  0
   -1.3684   -1.4048    2.2334 H   0  0
   -0.4438    2.8525    1.6376 H   0  0
    0.6676    2.2598    0.2312 H   0  0
   -2.1236    2.9128    0.2917 H   0  0
   -0.9418    3.3416   -0.7759 H   0  0
   -1.5341    1.8023   -0.7759 H   0  0
    0.6312    1.1683    3.1298 H   0  0
    0.6331   -0.6435    2.5993 H   0  0
    2.7243    0.6151    2.6725 H   0  0
    2.3519   -0.2511    1.3192 H   0  0
    2.1871    1.3900    1.3192 H   0  0
   -0.3350   -1.2888    0.5228 H   0  0
   -1.1668   -0.0073   -0.5863 H   0  0
    1.6644   -0.1915   -0.1564 H   0  0
    0.8903   -1.0540   -1.3299 H   0  0
    0.8116    0.5934   -1.3299 H   0  0
  1  2  1  0
  2  3  1  0
  1  4  1  0
  4  5  1  0
  1  6  1  0
  6  7  1  0
  1  8  1  0
  8  9  1  0
  2 10  1  0
  2 11  1  0
  3 12  1  0
  3 13  1  0
  3 14  1  0
  4 15  1  0
  4 16  1  0
  5 17  1  0
  5 18  1  0
  5 19  1  0
  6 20  1  0
  6 21  1  0
  7 22  1  0
  7 23  1  0
  7 24  1  0
  8 25  1  0
  8 26  1  0
  9 27  1  0
  9 28  1  0
  9 29  1  0
M  END
> <Name>
RCF2009 - Intermediário - (38)

$$$$
RCF2009 - Intermediário - (39)
  SciTegic12132405553D

 65 64  0  0  0  0            999 V2000
   -0.3525   -1.6010    2.1256 C   0  0
   -0.8792   -2.9770    1.5804 C   0  0
   -2.2055   -2.8577    1.0419 O   0  0
    0.0904   -0.6978    0.9148 C   0  0
    1.3759   -1.0901    0.3958 O   0  0
   -1.4863   -0.8695    2.9310 C   0  0
   -2.2693   -1.7826    3.7177 O   0  0
    0.8639   -1.8807    3.0757 C   0  0
    1.5761   -0.6797    3.4088 O   0  0
    2.4836   -0.3027    0.2288 C   0  0
    2.4398    0.9354    0.4252 O   0  0
    3.7576   -0.9234   -0.1822 C   0  0
    3.6633   -1.6620   -1.5436 C   0  0
    4.9840   -2.1323   -2.0076 C   0  0
    5.8744   -1.3090   -2.3201 O   0  0
    5.2671   -3.4523   -2.1159 O   0  0
   -3.3910   -1.4784    4.4323 C   0  0
   -3.7980   -0.2959    4.5149 O   0  0
   -4.1553   -2.5645    5.0754 C   0  0
   -3.3520   -3.3038    6.1752 C   0  0
   -4.1606   -4.3456    6.8387 C   0  0
   -5.1684   -4.0349    7.5136 O   0  0
   -3.8295   -5.6545    6.7409 O   0  0
   -6.3090   -1.1164   -1.4953 O   0  0
   -5.7993   -2.3711   -1.5165 C   0  0
   -6.5155   -3.3004   -1.9555 O   0  0
   -4.4243   -2.6394   -1.0514 C   0  0
   -4.3941   -3.5610    0.1957 C   0  0
   -3.0174   -3.8731    0.6297 C   0  0
   -2.6165   -5.0610    0.6440 O   0  0
    3.4032    3.7535    4.3228 O   0  0
    3.2205    2.9593    5.4040 C   0  0
    3.5759    3.3683    6.5311 O   0  0
    2.5747    1.5924    5.2717 C   0  0
    3.3947    0.7016    4.3013 C   0  0
    2.7710   -0.6151    4.0673 C   0  0
    3.3584   -1.6563    4.4451 O   0  0
   -0.2597   -3.2600    0.7294 H   0  0
   -0.9847   -3.6551    2.4272 H   0  0
   -0.6040   -0.8757    0.0937 H   0  0
    0.2423    0.3140    1.2906 H   0  0
   -1.0082   -0.2185    3.6629 H   0  0
   -2.1917   -0.4545    2.2111 H   0  0
    0.4689   -2.2379    4.0267 H   0  0
    1.5858   -2.4834    2.5245 H   0  0
    4.4467   -0.0902   -0.3200 H   0  0
    3.9614   -1.6796    0.5759 H   0  0
    3.0767   -2.5658   -1.3790 H   0  0
    3.3409   -0.9304   -2.2845 H   0  0
    5.3491   -3.8350   -1.2393 H   0  0
   -4.9898   -2.0687    5.5713 H   0  0
   -4.3444   -3.2867    4.2812 H   0  0
   -2.5431   -3.8388    5.6776 H   0  0
   -3.1256   -2.5745    6.9530 H   0  0
   -3.7352   -6.0273    7.6205 H   0  0
   -6.4240   -0.8330   -0.5853 H   0  0
   -3.9480   -3.1864   -1.8651 H   0  0
   -4.0318   -1.6705   -0.7429 H   0  0
   -4.8339   -2.9988    1.0195 H   0  0
   -4.8244   -4.5170   -0.1027 H   0  0
    3.5348    3.2082    3.5438 H   0  0
    2.6359    1.1303    6.2570 H   0  0
    1.6027    1.7587    4.8072 H   0  0
    3.3860    1.1967    3.3303 H   0  0
    4.3426    0.4835    4.7933 H   0  0
  1  2  1  0
  2  3  1  0
  1  4  1  0
  4  5  1  0
  1  6  1  0
  6  7  1  0
  1  8  1  0
  8  9  1  0
  5 10  1  0
 10 11  2  0
 10 12  1  0
 12 13  1  0
 13 14  1  0
 14 15  2  0
 14 16  1  0
 17 18  2  0
 17 19  1  0
 19 20  1  0
 20 21  1  0
 21 22  2  0
 21 23  1  0
  7 17  1  0
 24 25  1  0
 25 26  2  0
 25 27  1  0
 27 28  1  0
 28 29  1  0
 29 30  2  0
 29  3  1  0
 31 32  1  0
 32 33  2  0
 32 34  1  0
 34 35  1  0
 35 36  1  0
 36 37  2  0
 36  9  1  0
  2 38  1  0
  2 39  1  0
  4 40  1  0
  4 41  1  0
  6 42  1  0
  6 43  1  0
  8 44  1  0
  8 45  1  0
 12 46  1  0
 12 47  1  0
 13 48  1  0
 13 49  1  0
 16 50  1  0
 19 51  1  0
 19 52  1  0
 20 53  1  0
 20 54  1  0
 23 55  1  0
 24 56  1  0
 27 57  1  0
 27 58  1  0
 28 59  1  0
 28 60  1  0
 31 61  1  0
 34 62  1  0
 34 63  1  0
 35 64  1  0
 35 65  1  0
M  END
> <Name>
RCF2009 - Intermediário - (39)

$$$$
RCF2009 - Intermediário - (40)
  SciTegic12132405553D

 85 88  0  0  0  0            999 V2000
    3.9758   -6.4671    2.1729 C   0  0
    2.8163   -6.6351    1.1287 C   0  0
    1.5608   -6.1554    1.6442 O   0  0
    3.6109   -7.2187    3.5037 C   0  0
    3.3569   -8.6623    3.2045 O   0  0
    5.2921   -7.0693    1.5680 C   0  0
    6.4123   -6.8983    2.4557 O   0  0
    4.1846   -4.9430    2.4881 C   0  0
    4.5821   -4.2017    1.3193 O   0  0
    2.9586   -9.5327    4.6358 S   0  0
    1.5698   -8.9766    5.2136 O   0  0
    4.2687   -9.3624    5.8145 C   0  0
    7.8826   -7.5518    1.8357 S   0  0
    8.3189   -6.7238    0.5337 O   0  0
    7.6618   -9.2698    1.4723 C   0  0
    0.6653   -5.4107   -0.9660 C   0  0
    0.2608   -6.2858    0.5184 S   0  0
   -0.0320   -7.8352    0.2272 O   0  0
    3.3197   -1.8356    2.2990 C   0  0
    4.8068   -2.5200    1.6284 S   0  0
    6.0471   -2.3280    2.6263 O   0  0
   -1.0309   -5.6402    1.2165 O   0  0
    2.7675  -11.0697    4.2184 O   0  0
    5.1626   -1.8276    0.2264 O   0  0
    8.9986   -7.3554    2.9708 O   0  0
    6.4301   -8.9979    7.6134 C   0  0
    5.3272   -8.1141    7.6286 C   0  0
    4.2496   -8.3045    6.7464 C   0  0
    5.3605  -10.2530    5.8028 C   0  0
    6.4339  -10.0720    6.6934 C   0  0
    1.7331   -5.3617   -3.1630 C   0  0
    1.3347   -6.0711   -2.0163 C   0  0
    0.3636   -4.0403   -1.0933 C   0  0
    0.7516   -3.3317   -2.2452 C   0  0
    1.4452   -3.9835   -3.2909 C   0  0
    7.2179   -9.6719    0.1961 C   0  0
    7.8789  -10.2439    2.4667 C   0  0
    7.6266  -11.6016    2.1976 C   0  0
    7.1565  -12.0077    0.9274 C   0  0
    6.9544  -11.0270   -0.0706 C   0  0
    2.3142   -1.3383    1.4467 C   0  0
    1.0998   -0.8673    1.9793 C   0  0
    0.8727   -0.8826    3.3750 C   0  0
    1.8909   -1.3705    4.2261 C   0  0
    3.1085   -1.8295    3.6927 C   0  0
    7.5438   -8.8176    8.5722 C   0  0
    1.8336   -3.2490   -4.5161 C   0  0
    6.9131  -13.4375    0.6313 C   0  0
   -0.3924   -0.3638    3.9424 C   0  0
    3.0336   -5.9851    0.2811 H   0  0
    2.6609   -7.7024    0.9712 H   0  0
    4.4904   -7.1966    4.1473 H   0  0
    2.6635   -6.8158    3.8615 H   0  0
    5.1613   -8.1488    1.4921 H   0  0
    5.5492   -6.4879    0.6826 H   0  0
    3.2170   -4.5242    2.7642 H   0  0
    5.0305   -4.8566    3.1700 H   0  0
    5.3075   -7.2777    8.3273 H   0  0
    3.3952   -7.6288    6.7852 H   0  0
    5.3747  -11.0868    5.1009 H   0  0
    7.2729  -10.7674    6.6706 H   0  0
    2.2679   -5.8828   -3.9571 H   0  0
    1.5457   -7.1378   -1.9413 H   0  0
   -0.1729   -3.5255   -0.2962 H   0  0
    0.5135   -2.2713   -2.3281 H   0  0
    7.0774   -8.9299   -0.5899 H   0  0
    8.2440   -9.9456    3.4494 H   0  0
    7.7964  -12.3435    2.9780 H   0  0
    6.5917  -11.3188   -1.0562 H   0  0
    2.4769   -1.3177    0.3691 H   0  0
    0.3304   -0.4885    1.3066 H   0  0
    1.7355   -1.3931    5.3048 H   0  0
    3.8923   -2.1824    4.3629 H   0  0
    7.1601   -8.8797    9.5905 H   0  0
    8.2878   -9.5987    8.4159 H   0  0
    8.0033   -7.8416    8.4159 H   0  0
    2.0830   -3.9609   -5.3029 H   0  0
    1.0035   -2.6226   -4.8427 H   0  0
    2.7002   -2.6226   -4.3048 H   0  0
    6.8189  -13.9911    1.5656 H   0  0
    5.9933  -13.5378    0.0552 H   0  0
    7.7480  -13.8365    0.0552 H   0  0
   -0.3384   -0.3860    5.0309 H   0  0
   -0.5474    0.6616    3.6071 H   0  0
   -1.2227   -0.9852    3.6071 H   0  0
  1  2  1  0
  2  3  1  0
  1  4  1  0
  4  5  1  0
  1  6  1  0
  6  7  1  0
  1  8  1  0
  8  9  1  0
  5 10  1  0
 10 11  2  0
 10 12  1  0
 13 14  2  0
 13 15  1  0
  7 13  1  0
 16 17  1  0
 17 18  2  0
 17  3  1  0
 19 20  1  0
 20 21  2  0
 20  9  1  0
 17 22  2  0
 10 23  2  0
 20 24  2  0
 13 25  2  0
 26 27  1  0
 27 28  2  0
 29 30  1  0
 26 30  2  0
 28 12  1  0
 12 29  2  0
 31 32  1  0
 33 34  2  0
 34 35  1  0
 31 35  2  0
 32 16  2  0
 16 33  1  0
 37 38  1  0
 38 39  2  0
 39 40  1  0
 36 40  2  0
 36 15  1  0
 15 37  2  0
 41 42  1  0
 42 43  2  0
 43 44  1  0
 44 45  2  0
 45 19  1  0
 41 19  2  0
 26 46  1  0
 35 47  1  0
 39 48  1  0
 43 49  1  0
  2 50  1  0
  2 51  1  0
  4 52  1  0
  4 53  1  0
  6 54  1  0
  6 55  1  0
  8 56  1  0
  8 57  1  0
 27 58  1  0
 28 59  1  0
 29 60  1  0
 30 61  1  0
 31 62  1  0
 32 63  1  0
 33 64  1  0
 34 65  1  0
 36 66  1  0
 37 67  1  0
 38 68  1  0
 40 69  1  0
 41 70  1  0
 42 71  1  0
 44 72  1  0
 45 73  1  0
 46 74  1  0
 46 75  1  0
 46 76  1  0
 47 77  1  0
 47 78  1  0
 47 79  1  0
 48 80  1  0
 48 81  1  0
 48 82  1  0
 49 83  1  0
 49 84  1  0
 49 85  1  0
M  END
> <Name>
RCF2009 - Intermediário - (40)

$$$$
RCF2009 - Intermediário - (42)
  SciTegic12132405553D

 27 27  0  0  0  0            999 V2000
   -6.1416    4.5549    0.0054 C   0  0
   -7.4181    3.8316   -0.0172 C   0  0
   -7.4320    2.4988   -0.0287 C   0  0
   -6.1676    1.7552   -0.0187 C   0  0
   -5.0079    2.4133    0.0019 C   0  0
   -4.9946    3.8798    0.0145 C   0  0
   -3.6858    4.6181    0.0374 C   0  0
   -2.5973    3.7000    0.0180 O   0  0
   -1.4003    4.4200    0.0414 C   0  0
   -1.4509    5.6564    0.0742 O   0  0
   -0.0587    3.6855    0.0319 C   0  0
    1.1410    4.6558   -0.1284 C   0  0
    2.4701    3.9013   -0.1288 C   0  0
    2.4881    2.6661   -0.0549 O   0  0
    3.6895    4.6001   -0.2141 O   0  0
   -6.1320    5.6160    0.0145 H   0  0
   -8.3299    4.3703   -0.0244 H   0  0
   -8.3623    1.9727   -0.0452 H   0  0
   -6.1765    0.6908   -0.0278 H   0  0
   -4.0927    1.8760    0.0091 H   0  0
   -3.6454    5.2521    0.9369 H   0  0
   -3.6398    5.3008   -0.8253 H   0  0
   -0.0699    2.9376   -0.7736 H   0  0
    0.0371    3.1276    0.9742 H   0  0
    1.0561    5.2210   -1.0677 H   0  0
    1.1547    5.3977    0.6829 H   0  0
    4.4538    3.9579   -0.2017 H   0  0
  1  2  1  0
  2  3  2  0
  3  4  1  0
  4  5  2  0
  5  6  1  0
  1  6  2  0
  6  7  1  0
  7  8  1  0
  8  9  1  0
  9 11  1  0
 11 12  1  0
 12 13  1  0
 13 15  1  0
 13 14  2  0
  9 10  2  0
  1 16  1  0
  2 17  1  0
  3 18  1  0
  4 19  1  0
  5 20  1  0
  7 21  1  0
  7 22  1  0
 11 23  1  0
 11 24  1  0
 12 25  1  0
 12 26  1  0
 15 27  1  0
M  END
> <Name>
RCF2009 - Intermediário - (42)

> <Clean Energy>
39.257152557373

$$$$
RCF2009 - Intermediário - (45)
  SciTegic12132405553D

117120  0  0  0  0            999 V2000
    3.6864   -6.8687   -6.6957 C   0  0
    4.5340   -5.6673   -7.2435 C   0  0
    4.5281   -5.6448   -8.6754 O   0  0
    3.8310   -6.8954   -5.1343 C   0  0
    2.9654   -7.8516   -4.5114 O   0  0
    4.2253   -8.2207   -7.2783 C   0  0
    5.6288   -8.4126   -7.0735 O   0  0
    2.1902   -6.7038   -7.1611 C   0  0
    1.3483   -5.9927   -6.2460 O   0  0
    3.0410   -8.1654   -3.1895 C   0  0
    3.7909   -9.1038   -2.8328 O   0  0
    2.2082   -7.4490   -2.2026 C   0  0
    0.9512   -8.2624   -1.8088 C   0  0
    0.0531   -7.5473   -0.8811 C   0  0
    0.4837   -7.1855    0.2400 O   0  0
   -1.2460   -7.3194   -1.2456 O   0  0
    6.2551   -9.5571   -7.4526 C   0  0
    6.4070  -10.4706   -6.6095 O   0  0
    6.7819   -9.6941   -8.8232 C   0  0
    8.2947   -9.3684   -8.8948 C   0  0
    8.8101   -9.4217  -10.2760 C   0  0
    8.7754  -10.5070  -10.9040 O   0  0
    9.3269   -8.2921  -10.8474 O   0  0
    1.5153   -1.5827  -10.8274 O   0  0
    2.8735   -1.6680  -10.8747 C   0  0
    3.5199   -0.6005  -10.7802 O   0  0
    3.5961   -2.9606  -10.8933 C   0  0
    4.4214   -3.2370   -9.5660 C   0  0
    5.0837   -4.6794   -9.4502 C   0  0
    6.0404   -4.9823  -10.1965 O   0  0
   -2.1837   -8.9930   -4.3510 O   0  0
   -2.4716   -7.9197   -5.1388 C   0  0
   -3.5647   -7.3416   -4.9479 O   0  0
   -1.5055   -7.3547   -6.1038 C   0  0
   -1.0330   -5.9231   -5.7239 C   0  0
    0.1060   -5.5371   -6.5736 C   0  0
   -0.0761   -4.8819   -7.6263 O   0  0
   -2.2429   -6.6598   -0.4560 C   0  0
   -3.5302   -6.6400   -1.1927 C   0  0
    0.6004   -2.1237  -11.7877 C   0  0
   -1.6480  -10.2644   -4.7512 C   0  0
    9.7938   -8.1772  -12.1964 C   0  0
   -0.7745   -1.9602  -11.2582 C   0  0
   -1.2261  -10.9887   -3.5301 C   0  0
   10.3470   -6.8205  -12.4224 C   0  0
   -3.3772   -1.6147  -10.1957 C   0  0
   -2.7728   -2.8845  -10.1775 C   0  0
   -1.4814   -3.0579  -10.7094 C   0  0
   -1.3953   -0.6881  -11.2694 C   0  0
   -2.6897   -0.5171  -10.7442 C   0  0
    9.5530   -5.7912  -12.9833 C   0  0
   10.0961   -4.5128  -13.2123 C   0  0
   11.4369   -4.2467  -12.8810 C   0  0
   12.2326   -5.2568  -12.3117 C   0  0
   11.6897   -6.5338  -12.0788 C   0  0
   -4.4695   -7.6869   -1.0314 C   0  0
   -5.6919   -7.6669   -1.7285 C   0  0
   -5.9910   -6.6013   -2.5960 C   0  0
   -5.0651   -5.5567   -2.7681 C   0  0
   -3.8410   -5.5767   -2.0739 C   0  0
   -2.1682  -11.2368   -2.5047 C   0  0
   -1.7811  -11.8833   -1.3173 C   0  0
   -0.4449  -12.2842   -1.1365 C   0  0
    0.5000  -12.0544   -2.1521 C   0  0
    0.1117  -11.4191   -3.3469 C   0  0
    4.0384   -4.7423   -6.9488 H   0  0
    5.5759   -5.8377   -6.9723 H   0  0
    4.8354   -7.2482   -4.9003 H   0  0
    3.4887   -5.9333   -4.7531 H   0  0
    3.7609   -9.0304   -6.7155 H   0  0
    4.1176   -8.1786   -8.3621 H   0  0
    2.1926   -6.0751   -8.0515 H   0  0
    1.7482   -7.6995   -7.1982 H   0  0
    2.8275   -7.3632   -1.3097 H   0  0
    1.8619   -6.5509   -2.7140 H   0  0
    0.3664   -8.3986   -2.7185 H   0  0
    1.3002   -9.1308   -1.2501 H   0  0
    6.6680  -10.7492   -9.0721 H   0  0
    6.2618   -8.9366   -9.4094 H   0  0
    8.4142   -8.3308   -8.5831 H   0  0
    8.8188  -10.1615   -8.3615 H   0  0
    2.8107   -3.7143  -10.9484 H   0  0
    4.3152   -2.8623  -11.7065 H   0  0
    5.2553   -2.5356   -9.5933 H   0  0
    3.6926   -3.1861   -8.7571 H   0  0
   -0.6323   -8.0042   -6.0432 H   0  0
   -2.0574   -7.2694   -7.0398 H   0  0
   -1.8376   -5.2316   -5.9741 H   0  0
   -0.6444   -5.9618   -4.7063 H   0  0
   -2.3852   -7.2781    0.4303 H   0  0
   -1.9121   -5.6264   -0.3522 H   0  0
    0.6863   -1.5039  -12.6801 H   0  0
    0.8074   -3.1924  -11.8443 H   0  0
   -2.4713  -10.8222   -5.1973 H   0  0
   -0.7522  -10.0543   -5.3357 H   0  0
   10.6184   -8.8836  -12.2921 H   0  0
    8.9133   -8.2781  -12.8308 H   0  0
   -4.3780   -1.4812   -9.7850 H   0  0
   -3.3055   -3.7344   -9.7509 H   0  0
   -1.0260   -4.0481  -10.6962 H   0  0
   -0.8702    0.1706  -11.6878 H   0  0
   -3.1602    0.4660  -10.7621 H   0  0
    8.5120   -5.9851  -13.2416 H   0  0
    9.4774   -3.7277  -13.6470 H   0  0
   11.8590   -3.2587  -13.0654 H   0  0
   13.2705   -5.0499  -12.0507 H   0  0
   12.3135   -7.3063  -11.6291 H   0  0
   -4.2489   -8.5185   -0.3622 H   0  0
   -6.4080   -8.4780   -1.5964 H   0  0
   -6.9388   -6.5850   -3.1340 H   0  0
   -5.2966   -4.7305   -3.4403 H   0  0
   -3.1294   -4.7639   -2.2197 H   0  0
   -3.2053  -10.9259   -2.6311 H   0  0
   -2.5173  -12.0739   -0.5365 H   0  0
   -0.1420  -12.7724   -0.2102 H   0  0
    1.5344  -12.3690   -2.0131 H   0  0
    0.8497  -11.2599   -4.1331 H   0  0
  1  2  1  0
  2  3  1  0
  1  4  1  0
  4  5  1  0
  1  6  1  0
  6  7  1  0
  1  8  1  0
  8  9  1  0
  5 10  1  0
 10 11  2  0
 10 12  1  0
 12 13  1  0
 13 14  1  0
 14 15  2  0
 14 16  1  0
 17 18  2  0
 17 19  1  0
 19 20  1  0
 20 21  1  0
 21 22  2  0
 21 23  1  0
  7 17  1  0
 24 25  1  0
 25 26  2  0
 25 27  1  0
 27 28  1  0
 28 29  1  0
 29 30  2  0
 29  3  1  0
 31 32  1  0
 32 33  2  0
 32 34  1  0
 34 35  1  0
 35 36  1  0
 36 37  2  0
 36  9  1  0
 16 38  1  0
 39 38  1  0
 24 40  1  0
 31 41  1  0
 23 42  1  0
 43 40  1  0
 44 41  1  0
 42 45  1  0
 46 47  1  0
 47 48  2  0
 49 50  1  0
 46 50  2  0
 48 43  1  0
 43 49  2  0
 51 52  2  0
 52 53  1  0
 53 54  2  0
 54 55  1  0
 45 51  1  0
 45 55  2  0
 56 57  1  0
 57 58  2  0
 58 59  1  0
 59 60  2  0
 60 39  1  0
 56 39  2  0
 61 62  2  0
 62 63  1  0
 63 64  2  0
 64 65  1  0
 44 61  1  0
 44 65  2  0
  2 66  1  0
  2 67  1  0
  4 68  1  0
  4 69  1  0
  6 70  1  0
  6 71  1  0
  8 72  1  0
  8 73  1  0
 12 74  1  0
 12 75  1  0
 13 76  1  0
 13 77  1  0
 19 78  1  0
 19 79  1  0
 20 80  1  0
 20 81  1  0
 27 82  1  0
 27 83  1  0
 28 84  1  0
 28 85  1  0
 34 86  1  0
 34 87  1  0
 35 88  1  0
 35 89  1  0
 38 90  1  0
 38 91  1  0
 40 92  1  0
 40 93  1  0
 41 94  1  0
 41 95  1  0
 42 96  1  0
 42 97  1  0
 46 98  1  0
 47 99  1  0
 48100  1  0
 49101  1  0
 50102  1  0
 51103  1  0
 52104  1  0
 53105  1  0
 54106  1  0
 55107  1  0
 56108  1  0
 57109  1  0
 58110  1  0
 59111  1  0
 60112  1  0
 61113  1  0
 62114  1  0
 63115  1  0
 64116  1  0
 65117  1  0
M  END
> <Name>
RCF2009 - Intermediário - (45)

> <Clean Energy>
RCF2009 - Intermediário - (45)

$$$$
RCF2009 - Intermediário - (46)
  SciTegic12132405553D

281288  0  0  0  0            999 V2000
    7.5896   -6.1809    1.4913 O   0  0
    8.9586   -5.9513    1.8637 C   0  0
    9.4975   -4.6626    1.1786 C   0  0  1  0  0  0
    9.3245   -3.5409    2.0798 O   0  0
    9.7176   -2.2506    1.5491 C   0  0  1  0  0  0
    9.5714   -1.2369    2.5694 O   0  0
   11.2014   -2.2586    1.0878 C   0  0  2  0  0  0
   11.4785   -1.0096    0.4266 O   0  0
   11.4445   -3.4359    0.1036 C   0  0  1  0  0  0
   12.8303   -3.4679   -0.2786 O   0  0
   10.9911   -4.7772    0.7490 C   0  0  1  0  0  0
   11.8059   -5.0516    1.9045 O   0  0
   12.4584   -0.0891    0.6729 C   0  0
   12.3585    1.0062    0.0744 O   0  0
   13.6231   -0.3403    1.5411 C   0  0
   13.3828   -4.1657   -1.3163 C   0  0
   14.8175   -4.0358   -1.6024 C   0  0
   12.6812   -4.8997   -2.0515 O   0  0
   12.5941   -6.1378    2.1565 C   0  0
   13.3367   -6.2070    3.4224 C   0  0
   12.6964   -7.0816    1.3386 O   0  0
    6.4766   -6.2031    2.2789 C   0  0
    5.1906   -6.5388    1.6495 C   0  0
    6.5308   -5.9405    3.5030 O   0  0
    8.2665   -0.9464    2.8678 C   0  0
    7.6110   -1.5808    3.9468 C   0  0
    7.5807    0.0150    2.1011 C   0  0
    6.2323    0.3019    2.3678 C   0  0
    5.5430   -0.3620    3.4094 C   0  0
    6.2514   -1.2981    4.2001 C   0  0
    4.0981   -0.0820    3.6433 C   0  0
    3.8462    1.3020    4.3056 C   0  0
    8.2767   -2.4880    4.7258 O   0  0
    8.9544   -1.8768    5.8379 C   0  0
    2.4262    1.7122    4.1822 C   0  0
    1.6405    1.4491    5.1199 O   0  0
    1.8874    2.3446    3.1026 N   0  0
    2.5999    2.7895    1.9419 C   0  0
    1.7111    2.9861    0.6585 C   0  0  2  0  0  0
    0.6159    4.0905    0.8974 C   0  0
    0.9679    1.6418    0.3182 C   0  0
    2.6615    3.4165   -0.5196 C   0  0
    1.7243   10.0960   10.4217 O   0  0
    2.1548   11.4510   10.2110 C   0  0
    3.5292   11.4889    9.4805 C   0  0  1  0  0  0
    3.3143   11.6930    8.0614 O   0  0
    4.5147   11.6719    7.2488 C   0  0  1  0  0  0
    4.1702   11.9587    5.8735 O   0  0
    5.5388   12.7415    7.7194 C   0  0  2  0  0  0
    6.7571   12.5597    6.9741 O   0  0
    5.8194   12.5706    9.2376 C   0  0  1  0  0  0
    6.7282   13.5904    9.6877 O   0  0
    4.4827   12.5913   10.0356 C   0  0  1  0  0  0
    3.8585   13.8822    9.8913 O   0  0
    7.4122   13.4240    6.1416 C   0  0
    8.3901   12.9611    5.5117 O   0  0
    7.0519   14.8438    5.9761 C   0  0
    7.4209   13.6045   10.8680 C   0  0
    8.3518   14.7025   11.1593 C   0  0
    7.2991   12.6790   11.7046 O   0  0
    3.5095   14.7778   10.8610 C   0  0
    2.8701   16.0431   10.4735 C   0  0
    3.7170   14.5463   12.0747 O   0  0
    0.5995    9.4707    9.9692 C   0  0
    0.3514    8.0878   10.4042 C   0  0
   -0.2077   10.0435    9.2009 O   0  0
    3.5721   10.9032    5.2382 C   0  0
    2.1656   10.7888    5.1755 C   0  0
    4.3808    9.9164    4.6399 C   0  0
    3.7973    8.7873    4.0432 C   0  0
    2.3922    8.6305    4.0190 C   0  0
    1.5866    9.6514    4.5772 C   0  0
    1.7676    7.4105    3.4436 C   0  0
    1.0742    7.6714    2.0781 C   0  0
    1.3606   11.7487    5.7293 O   0  0
    1.0197   12.7999    4.8079 C   0  0
    0.4024    6.4547    1.5739 C   0  0
   -0.8454    6.4444    1.4450 O   0  0
    1.1490    5.3570    1.2819 N   0  0
    1.5432   -2.4845  -10.1078 O   0  0
    0.9157   -1.7530  -11.1740 C   0  0
   -0.5072   -1.2774  -10.7577 C   0  0  1  0  0  0
   -0.4414    0.0984  -10.3054 O   0  0
   -1.6914    0.6441   -9.8139 C   0  0  1  0  0  0
   -1.5054    2.0357   -9.4657 O   0  0
   -2.8090    0.5646  -10.8904 C   0  0  2  0  0  0
   -4.0491    0.9767  -10.2860 O   0  0
   -2.9358   -0.8930  -11.4120 C   0  0  1  0  0  0
   -3.9346   -0.9608  -12.4447 O   0  0
   -1.5525   -1.4073  -11.9079 C   0  0  1  0  0  0
   -1.1247   -0.6191  -13.0360 O   0  0
   -4.8833    2.0089  -10.6142 C   0  0
   -5.8379    2.2265   -9.8342 O   0  0
   -4.7352    2.8374  -11.8245 C   0  0
   -4.5217   -2.0933  -12.9406 C   0  0
   -5.5661   -1.9887  -13.9679 C   0  0
   -4.2052   -3.2293  -12.5156 O   0  0
   -0.8214   -1.0302  -14.3022 C   0  0
   -0.3953   -0.0362  -15.2973 C   0  0
   -0.8932   -2.2355  -14.6366 O   0  0
    2.7011   -2.2093   -9.4410 C   0  0
    3.1711   -3.1766   -8.4378 C   0  0
    3.3555   -1.1641   -9.6629 O   0  0
   -0.8240    2.2089   -8.2905 C   0  0
    0.5748    2.4054   -8.2780 C   0  0
   -1.5375    2.1881   -7.0755 C   0  0
   -0.8573    2.2924   -5.8517 C   0  0
    0.5491    2.4358   -5.8193 C   0  0
    1.2516    2.5068   -7.0457 C   0  0
    1.2841    2.4863   -4.5282 C   0  0
    1.8189    3.9053   -4.1908 C   0  0
    1.2846    2.4532   -9.4485 O   0  0
    1.4007    3.7835   -9.9845 C   0  0
    2.6060    3.9009   -2.9393 C   0  0
    3.8284    4.1806   -2.9753 O   0  0
    1.9945    3.5681   -1.7718 N   0  0
   -2.7706   -2.6387    8.8779 O   0  0
   -4.1222   -3.0528    8.6185 C   0  0
   -4.8873   -1.9459    7.8375 C   0  0  1  0  0  0
   -4.7944   -2.2196    6.4174 O   0  0
   -5.4029   -1.2287    5.5520 C   0  0  1  0  0  0
   -5.3117   -1.6596    4.1751 O   0  0
   -6.9049   -1.0267    5.8946 C   0  0  2  0  0  0
   -7.4042    0.0772    5.1159 O   0  0
   -7.0665   -0.7138    7.4078 C   0  0  1  0  0  0
   -8.4620   -0.5791    7.7272 O   0  0
   -6.3819   -1.8208    8.2606 C   0  0  1  0  0  0
   -7.0522   -3.0765    8.0416 O   0  0
   -8.4766    0.1357    4.2705 C   0  0
   -8.5775    1.1671    3.5675 O   0  0
   -9.5195   -0.9033    4.1919 C   0  0
   -8.9987   -0.0474    8.8665 C   0  0
  -10.4566    0.0677    9.0026 C   0  0
   -8.2675    0.3716    9.7944 O   0  0
   -7.6609   -3.8912    8.9529 C   0  0
   -8.2788   -5.1434    8.4956 C   0  0
   -7.7014   -3.6022   10.1715 O   0  0
   -1.6031   -3.1935    8.4435 C   0  0
   -0.3405   -2.6107    8.9216 C   0  0
   -1.5902   -4.1668    7.6543 O   0  0
   -4.0383   -1.6160    3.6723 C   0  0
   -3.2145   -2.7638    3.6840 C   0  0
   -3.5567   -0.4156    3.1160 C   0  0
   -2.2426   -0.3396    2.6272 C   0  0
   -1.3844   -1.4629    2.6793 C   0  0
   -1.8899   -2.6764    3.2040 C   0  0
    0.0232   -1.3479    2.2036 C   0  0
    0.1382   -1.2825    0.6544 C   0  0
   -3.6827   -3.9482    4.1849 O   0  0
   -4.3422   -4.7523    3.1908 C   0  0
    1.4736   -0.7967    0.2295 C   0  0
    2.3633   -1.6363   -0.0334 O   0  0
    1.8288    0.5139    0.1200 N   0  0
    8.9360   -5.7759    2.9393 H   0  0
    9.5099   -6.8014    1.4616 H   0  0
    8.8992   -4.4471    0.2934 H   0  0
    9.0172   -2.0394    0.7410 H   0  0
   11.8883   -2.3155    1.9322 H   0  0
   10.9223   -3.2872   -0.8416 H   0  0
   11.1520   -5.6210    0.0780 H   0  0
   13.3185   -0.2746    2.5856 H   0  0
   14.0183   -1.3360    1.3397 H   0  0
   14.3936    0.4039    1.3397 H   0  0
   15.3718   -3.9856   -0.6651 H   0  0
   15.1530   -4.8990   -2.1771 H   0  0
   14.9925   -3.1263   -2.1771 H   0  0
   13.4958   -7.2507    3.6937 H   0  0
   14.3002   -5.7109    3.3060 H   0  0
   12.7650   -5.7109    4.2066 H   0  0
    4.4473   -6.7328    2.4228 H   0  0
    4.8609   -5.7050    1.0296 H   0  0
    5.3104   -7.4273    1.0296 H   0  0
    8.0963    0.5399    1.2969 H   0  0
    5.7165    1.0461    1.7611 H   0  0
    5.7419   -1.8092    5.0169 H   0  0
    3.6500   -0.0425    2.6505 H   0  0
    3.7726   -0.8375    4.3585 H   0  0
    4.4126    2.0393    3.7367 H   0  0
    4.0235    1.1848    5.3746 H   0  0
    9.3527   -2.6528    6.4916 H   0  0
    9.7719   -1.2573    5.4692 H   0  0
    8.2520   -1.2573    6.3955 H   0  0
    0.8907    2.4941    3.1672 H   0  0
    3.2950    1.9755    1.7361 H   0  0
    2.9789    3.7700    2.2300 H   0  0
    0.1317    4.2888   -0.0588 H   0  0
    0.0196    3.7848    1.7571 H   0  0
    0.3757    1.3661    1.1908 H   0  0
    0.4840    1.7722   -0.6497 H   0  0
    3.0324    4.4170   -0.2969 H   0  0
    3.3636    2.6011   -0.6931 H   0  0
    1.4092   11.8841    9.5442 H   0  0
    2.2957   11.8616   11.2109 H   0  0
    4.0155   10.5187    9.5826 H   0  0
    4.8995   10.6544    7.3169 H   0  0
    5.2005   13.7550    7.5040 H   0  0
    6.3597   11.6467    9.4438 H   0  0
    4.6547   12.4714   11.1052 H   0  0
    6.9347   15.3056    6.9564 H   0  0
    7.8399   15.3567    5.4247 H   0  0
    6.1147   14.9188    5.4247 H   0  0
    8.4503   14.8187   12.2386 H   0  0
    9.3269   14.4764   10.7277 H   0  0
    7.9691   15.6274   10.7277 H   0  0
    2.5898   16.5977   11.3690 H   0  0
    3.5675   16.6364    9.8821 H   0  0
    1.9788   15.8336    9.8821 H   0  0
    0.3438    8.0454   11.4933 H   0  0
   -0.6127    7.7538   10.0208 H   0  0
    1.1393    7.4395   10.0208 H   0  0
    5.4651   10.0273    4.6386 H   0  0
    4.4389    8.0280    3.5962 H   0  0
    0.5009    9.5600    4.5459 H   0  0
    2.5961    6.7286    3.2520 H   0  0
    0.9838    7.1315    4.1478 H   0  0
    1.8586    7.8916    1.3540 H   0  0
    0.2761    8.3927    2.2533 H   0  0
    0.7306   13.6914    5.3645 H   0  0
    1.8817   13.0269    4.1805 H   0  0
    0.1885   12.4778    4.1805 H   0  0
    2.1477    5.4887    1.3540 H   0  0
    1.5368   -0.8682  -11.3136 H   0  0
    0.8041   -2.4738  -11.9840 H   0  0
   -0.8462   -1.8665   -9.9056 H   0  0
   -1.9267    0.0778   -8.9128 H   0  0
   -2.6314    1.2531  -11.7165 H   0  0
   -3.3258   -1.5610  -10.6440 H   0  0
   -1.6166   -2.4305  -12.2780 H   0  0
   -4.6286    2.1916  -12.6960 H   0  0
   -5.6172    3.4666  -11.9442 H   0  0
   -3.8504    3.4666  -11.7281 H   0  0
   -6.5397   -1.8912  -13.4875 H   0  0
   -5.3782   -1.1131  -14.5892 H   0  0
   -5.5556   -2.8842  -14.5892 H   0  0
   -0.0159    0.8491  -14.7871 H   0  0
    0.3909   -0.4609  -15.9214 H   0  0
   -1.2451    0.2404  -15.9214 H   0  0
    2.9808   -2.7851   -7.4385 H   0  0
    2.6398   -4.1198   -8.5657 H   0  0
    4.2408   -3.3419   -8.5657 H   0  0
   -2.6231    2.0906   -7.0825 H   0  0
   -1.4243    2.2619   -4.9213 H   0  0
    2.3332    2.6421   -7.0412 H   0  0
    0.5433    2.2388   -3.7678 H   0  0
    2.1547    1.8460   -4.6698 H   0  0
    0.9541    4.5371   -3.9880 H   0  0
    2.5229    4.1808   -4.9760 H   0  0
    1.4632    4.5007   -9.1661 H   0  0
    2.3000    3.8514  -10.5966 H   0  0
    0.5267    4.0060  -10.5966 H   0  0
    0.9967    3.4266   -1.8379 H   0  0
   -4.0340   -3.9230    7.9681 H   0  0
   -4.5839   -3.1512    9.6009 H   0  0
   -4.4001   -0.9850    8.0028 H   0  0
   -4.8079   -0.3240    5.6773 H   0  0
   -7.5047   -1.8928    5.6151 H   0  0
   -6.6502    0.2599    7.6661 H   0  0
   -6.4816   -1.6252    9.3283 H   0  0
   -9.8153   -1.1980    5.1987 H   0  0
  -10.3852   -0.5096    3.6594 H   0  0
   -9.1289   -1.7705    3.6594 H   0  0
  -10.7223    0.0887   10.0595 H   0  0
  -10.7947    0.9871    8.5247 H   0  0
  -10.9348   -0.7873    8.5247 H   0  0
   -8.5731   -5.7398    9.3592 H   0  0
   -9.1589   -4.9158    7.8943 H   0  0
   -7.5627   -5.7034    7.8943 H   0  0
   -0.3319   -2.6068   10.0116 H   0  0
    0.4961   -3.2048    8.5539 H   0  0
   -0.2498   -1.5887    8.5539 H   0  0
   -4.2045    0.4594    3.0634 H   0  0
   -1.8856    0.5993    2.2039 H   0  0
   -1.2489   -3.5573    3.2391 H   0  0
    0.3771   -0.3907    2.5866 H   0  0
    0.5073   -2.2728    2.5168 H   0  0
   -0.5691   -0.5280    0.3103 H   0  0
    0.0685   -2.3048    0.2827 H   0  0
   -4.9592   -5.5044    3.6826 H   0  0
   -4.9717   -4.1164    2.5683 H   0  0
   -3.5955   -5.2452    2.5683 H   0  0
    2.7978    0.6594   -0.1251 H   0  0
  1  2  1  0
  3  2  1  0
  3  4  1  0
  5  4  1  0
  5  6  1  0
  7  5  1  0
  7  8  1  0
  7  9  1  0
  9 10  1  0
  9 11  1  0
 11  3  1  0
 11 12  1  0
  8 13  1  0
 13 15  1  0
 13 14  2  0
 10 16  1  0
 16 17  1  0
 16 18  2  0
 12 19  1  0
 19 20  1  0
  1 22  1  0
 22 23  1  0
 22 24  2  0
 19 21  2  0
  6 25  1  0
 27 28  1  0
 28 29  2  0
 29 30  1  0
 26 30  2  0
 26 25  1  0
 25 27  2  0
 29 31  1  0
 26 33  1  0
 33 34  1  0
 32 35  1  0
 35 36  2  0
 31 32  1  0
 35 37  1  0
 38 39  1  0
 39 40  1  0
 39 41  1  0
 39 42  1  0
 43 44  1  0
 45 44  1  0
 45 46  1  0
 47 46  1  0
 47 48  1  0
 49 47  1  0
 49 50  1  0
 49 51  1  0
 51 52  1  0
 51 53  1  0
 53 45  1  0
 53 54  1  0
 50 55  1  0
 55 57  1  0
 55 56  2  0
 52 58  1  0
 58 59  1  0
 58 60  2  0
 54 61  1  0
 61 62  1  0
 43 64  1  0
 64 65  1  0
 64 66  2  0
 61 63  2  0
 48 67  1  0
 69 70  1  0
 70 71  2  0
 71 72  1  0
 68 72  2  0
 68 67  1  0
 67 69  2  0
 71 73  1  0
 68 75  1  0
 75 76  1  0
 74 77  1  0
 77 78  2  0
 73 74  1  0
 77 79  1  0
 80 81  1  0
 82 81  1  0
 82 83  1  0
 84 83  1  0
 84 85  1  0
 86 84  1  0
 86 87  1  0
 86 88  1  0
 88 89  1  0
 88 90  1  0
 90 82  1  0
 90 91  1  0
 87 92  1  0
 92 94  1  0
 92 93  2  0
 89 95  1  0
 95 96  1  0
 95 97  2  0
 91 98  1  0
 98 99  1  0
 80101  1  0
101102  1  0
101103  2  0
 98100  2  0
 85104  1  0
106107  1  0
107108  2  0
108109  1  0
105109  2  0
105104  1  0
104106  2  0
108110  1  0
105112  1  0
112113  1  0
111114  1  0
114115  2  0
110111  1  0
114116  1  0
117118  1  0
119118  1  0
119120  1  0
121120  1  0
121122  1  0
123121  1  0
123124  1  0
123125  1  0
125126  1  0
125127  1  0
127119  1  0
127128  1  0
124129  1  0
129131  1  0
129130  2  0
126132  1  0
132133  1  0
132134  2  0
128135  1  0
135136  1  0
117138  1  0
138139  1  0
138140  2  0
135137  2  0
122141  1  0
143144  1  0
144145  2  0
145146  1  0
142146  2  0
142141  1  0
141143  2  0
145147  1  0
142149  1  0
149150  1  0
148151  1  0
151152  2  0
147148  1  0
151153  1  0
 79 40  1  0
 37 38  1  0
116 42  1  0
153 41  1  0
  2154  1  0
  2155  1  0
  3156  1  0
  5157  1  0
  7158  1  0
  9159  1  0
 11160  1  0
 15161  1  0
 15162  1  0
 15163  1  0
 17164  1  0
 17165  1  0
 17166  1  0
 20167  1  0
 20168  1  0
 20169  1  0
 23170  1  0
 23171  1  0
 23172  1  0
 27173  1  0
 28174  1  0
 30175  1  0
 31176  1  0
 31177  1  0
 32178  1  0
 32179  1  0
 34180  1  0
 34181  1  0
 34182  1  0
 37183  1  0
 38184  1  0
 38185  1  0
 40186  1  0
 40187  1  0
 41188  1  0
 41189  1  0
 42190  1  0
 42191  1  0
 44192  1  0
 44193  1  0
 45194  1  0
 47195  1  0
 49196  1  0
 51197  1  0
 53198  1  0
 57199  1  0
 57200  1  0
 57201  1  0
 59202  1  0
 59203  1  0
 59204  1  0
 62205  1  0
 62206  1  0
 62207  1  0
 65208  1  0
 65209  1  0
 65210  1  0
 69211  1  0
 70212  1  0
 72213  1  0
 73214  1  0
 73215  1  0
 74216  1  0
 74217  1  0
 76218  1  0
 76219  1  0
 76220  1  0
 79221  1  0
 81222  1  0
 81223  1  0
 82224  1  0
 84225  1  0
 86226  1  0
 88227  1  0
 90228  1  0
 94229  1  0
 94230  1  0
 94231  1  0
 96232  1  0
 96233  1  0
 96234  1  0
 99235  1  0
 99236  1  0
 99237  1  0
102238  1  0
102239  1  0
102240  1  0
106241  1  0
107242  1  0
109243  1  0
110244  1  0
110245  1  0
111246  1  0
111247  1  0
113248  1  0
113249  1  0
113250  1  0
116251  1  0
118252  1  0
118253  1  0
119254  1  0
121255  1  0
123256  1  0
125257  1  0
127258  1  0
131259  1  0
131260  1  0
131261  1  0
133262  1  0
133263  1  0
133264  1  0
136265  1  0
136266  1  0
136267  1  0
139268  1  0
139269  1  0
139270  1  0
143271  1  0
144272  1  0
146273  1  0
147274  1  0
147275  1  0
148276  1  0
148277  1  0
150278  1  0
150279  1  0
150280  1  0
153281  1  0
M  END
> <Name>
RCF2009 - Intermediário - (46)

> <Clean Energy>
RCF2009 - Intermediário - (46)

$$$$
RCF2009 - Intermediário - (50)
  SciTegic12132405553D

 58 59  0  0  0  0            999 V2000
    1.0032    0.9082   -3.5002 O   0  0
   -0.1652    1.2588   -2.7453 C   0  0
   -0.2028    0.4416   -1.4313 C   0  0  1  0  0  0
    0.9660    0.7476   -0.6345 O   0  0
    1.1095   -0.0623    0.5586 C   0  0  2  0  0  0
    1.3162   -1.4604    0.2406 O   0  0
   -0.1270    0.0525    1.5053 C   0  0  1  0  0  0
   -0.2057    1.1989    2.3717 O   0  0
   -1.4660   -0.1126    0.7238 C   0  0  1  0  0  0
   -2.6180    0.2698    1.5013 O   0  0
   -1.4893    0.7120   -0.5929 C   0  0  2  0  0  0
   -2.7066    0.4759   -1.3311 O   0  0
    1.2970    1.3394   -4.7618 C   0  0
    0.5050    2.0759   -5.3958 O   0  0
    2.5667    0.9301   -5.3774 C   0  0
   -3.1642   -0.6821   -1.9034 C   0  0
   -4.4758   -0.7001   -2.5614 C   0  0
   -2.4965   -1.7416   -1.8852 O   0  0
   -3.1811   -0.4102    2.5432 C   0  0
   -4.3538    0.1566    3.2252 C   0  0
   -2.7217   -1.5141    2.9161 O   0  0
    0.5641    2.3025    2.5933 C   0  0
    1.5786    2.5986    1.9211 O   0  0
    0.1424    3.1512    3.7136 C   0  0
    2.5756   -1.7659   -0.2004 C   0  0
    5.1486   -2.5165   -1.0969 C   0  0
    4.1010   -2.3276   -2.0220 C   0  0
    2.8183   -1.9576   -1.5758 C   0  0
    3.6312   -1.9321    0.7219 C   0  0
    4.9138   -2.2938    0.2747 C   0  0
    6.3906   -2.9069   -1.5200 O   0  0
    6.5498   -4.3380   -1.5083 C   0  0
   -0.0370    2.3096   -2.4854 H   0  0
   -1.0104    0.9485   -3.3597 H   0  0
   -0.1419   -0.6188   -1.6759 H   0  0
    2.0326    0.3102    1.0028 H   0  0
    0.0331   -0.7119    2.2656 H   0  0
   -1.5933   -1.1787    0.5355 H   0  0
   -1.5633    1.7794   -0.3846 H   0  0
    3.2906    0.6967   -4.5966 H   0  0
    2.4027    0.0479   -5.9962 H   0  0
    2.9488    1.7420   -5.9962 H   0  0
   -5.2613   -0.7109   -1.8057 H   0  0
   -4.5824    0.1885   -3.1836 H   0  0
   -4.5580   -1.5913   -3.1836 H   0  0
   -4.2144    0.0892    4.3041 H   0  0
   -4.4709    1.2017    2.9386 H   0  0
   -5.2455   -0.4009    2.9386 H   0  0
   -0.1715    2.5231    4.5472 H   0  0
    0.9755    3.7805    4.0264 H   0  0
   -0.6903    3.7805    3.3993 H   0  0
    4.2836   -2.4684   -3.0873 H   0  0
    2.0120   -1.8194   -2.2961 H   0  0
    3.4547   -1.7802    1.7867 H   0  0
    5.7272   -2.4016    0.9922 H   0  0
    6.5891   -4.6908   -0.4777 H   0  0
    5.7059   -4.8017   -2.0192 H   0  0
    7.4750   -4.6048   -2.0192 H   0  0
  1  2  1  0
  3  2  1  0
  3  4  1  0
  5  4  1  0
  5  6  1  0
  7  5  1  0
  7  8  1  0
  7  9  1  0
  9 10  1  0
  9 11  1  0
 11  3  1  0
 11 12  1  0
  1 13  1  0
 13 14  2  0
 13 15  1  0
 12 16  1  0
 16 17  1  0
 16 18  2  0
 10 19  1  0
 19 20  1  0
 19 21  2  0
  8 22  1  0
 22 23  2  0
 22 24  1  0
  6 25  1  0
 26 27  1  0
 27 28  2  0
 29 30  1  0
 26 30  2  0
 28 25  1  0
 25 29  2  0
 26 31  1  0
 31 32  1  0
  2 33  1  0
  2 34  1  0
  3 35  1  0
  5 36  1  0
  7 37  1  0
  9 38  1  0
 11 39  1  0
 15 40  1  0
 15 41  1  0
 15 42  1  0
 17 43  1  0
 17 44  1  0
 17 45  1  0
 20 46  1  0
 20 47  1  0
 20 48  1  0
 24 49  1  0
 24 50  1  0
 24 51  1  0
 27 52  1  0
 28 53  1  0
 29 54  1  0
 30 55  1  0
 32 56  1  0
 32 57  1  0
 32 58  1  0
M  END
> <Name>
RCF2009 - Intermediário - (50)

> <Clean Energy>
RCF2009 - Intermediário - (50)

$$$$
RCF2009 - Intermediário - (51)
  SciTegic12132405553D

 38 39  0  0  0  0            999 V2000
   -5.3529    3.9746   -0.9005 O   0  0
   -6.5460    3.4156   -0.3596 C   0  0
   -6.6728    1.9385   -0.8280 C   0  0  1  0  0  0
   -5.4739    1.1734   -0.5953 O   0  0
   -5.1756    0.8129    0.7748 C   0  0  2  0  0  0
   -3.9643    0.0264    0.7896 O   0  0
   -6.3330   -0.0334    1.3648 C   0  0  1  0  0  0
   -6.0903   -0.3224    2.7441 O   0  0
   -7.7085    0.6718    1.1704 C   0  0  1  0  0  0
   -7.8424    1.7702    2.0728 O   0  0
   -7.9085    1.1558   -0.2953 C   0  0  2  0  0  0
   -8.1140    0.0146   -1.1309 O   0  0
   -2.8912    0.7123    0.2850 C   0  0
   -0.7218    2.1832   -0.7686 C   0  0
   -1.0804    2.3205    0.5882 C   0  0
   -2.1550    1.5821    1.1140 C   0  0
   -2.5262    0.5661   -1.0709 C   0  0
   -1.4511    1.3057   -1.5965 C   0  0
    0.3139    2.9149   -1.2813 O   0  0
    1.5728    2.2242   -1.2004 C   0  0
   -4.7735    4.2461   -0.1847 H   0  0
   -6.4031    3.4215    0.7210 H   0  0
   -7.3600    3.9876   -0.8048 H   0  0
   -6.7520    2.0007   -1.9134 H   0  0
   -4.9985    1.7346    1.3290 H   0  0
   -6.3523   -1.0193    0.9003 H   0  0
   -6.0677   -1.2735    2.8726 H   0  0
   -8.5132   -0.0060    1.4555 H   0  0
   -7.8032    1.4486    2.9765 H   0  0
   -8.8059    1.7704   -0.3665 H   0  0
   -8.2539   -0.7616   -0.5836 H   0  0
   -0.5243    3.0006    1.2335 H   0  0
   -2.4180    1.6842    2.1669 H   0  0
   -3.0765   -0.1204   -1.7144 H   0  0
   -1.1825    1.1985   -2.6474 H   0  0
    1.8402    2.0776   -0.1540 H   0  0
    1.4881    1.2556   -1.6930 H   0  0
    2.3442    2.8162   -1.6930 H   0  0
  1  2  1  0
  3  2  1  0
  3  4  1  0
  5  4  1  0
  5  6  1  0
  7  5  1  0
  7  8  1  0
  7  9  1  0
  9 10  1  0
  9 11  1  0
 11  3  1  0
 11 12  1  0
  6 13  1  0
 14 15  1  0
 15 16  2  0
 17 18  1  0
 14 18  2  0
 16 13  1  0
 13 17  2  0
 14 19  1  0
 19 20  1  0
  1 21  1  0
  2 22  1  0
  2 23  1  0
  3 24  1  0
  5 25  1  0
  7 26  1  0
  8 27  1  0
  9 28  1  0
 10 29  1  0
 11 30  1  0
 12 31  1  0
 15 32  1  0
 16 33  1  0
 17 34  1  0
 18 35  1  0
 20 36  1  0
 20 37  1  0
 20 38  1  0
M  END
> <Name>
RCF2009 - Intermediário - (51)

> <Clean Energy>
RCF2009 - Intermediário - (51)

$$$$
RCF2009 - Intermediário - (52)
  SciTegic12132405553D

 54 56  0  0  0  0            999 V2000
    2.3552   -2.1235   -5.1529 O   0  0
    1.0783   -2.7387   -4.9074 C   0  0
    1.0985   -4.2323   -5.3381 C   0  0  1  0  0  0
    2.3153   -4.9146   -4.9699 O   0  0
    2.4939   -5.2102   -3.5635 C   0  0  2  0  0  0
    3.7349   -5.9249   -3.3668 O   0  0
    1.3377   -6.1130   -3.0554 C   0  0  1  0  0  0
    1.4648   -6.3370   -1.6510 O   0  0
   -0.0542   -5.5041   -3.3842 C   0  0  1  0  0  0
   -0.3509   -4.4179   -2.5062 O   0  0
   -0.1441   -5.0589   -4.8749 C   0  0  2  0  0  0
   -0.2503   -6.2343   -5.6820 O   0  0
    4.8354   -5.2427   -3.8153 C   0  0
    7.0674   -3.7948   -4.7761 C   0  0
    6.4186   -4.7321   -5.6058 C   0  0
    5.3162   -5.4614   -5.1236 C   0  0
    5.4943   -4.3173   -2.9801 C   0  0
    6.5992   -3.5907   -3.4613 C   0  0
    8.1135   -3.0561   -5.2577 O   0  0
    9.3906   -3.6842   -5.0552 C   0  0
    2.4906   -0.5430   -4.4721 S   0  0
    2.7441   -0.7049   -2.8973 O   0  0
    3.7837    0.1438   -5.1260 O   0  0
    1.0347    0.4100   -4.8067 C   0  0
    0.9537    1.2293   -5.9516 C   0  0
   -0.2363    1.9194   -6.2520 C   0  0
   -1.3696    1.8017   -5.4141 C   0  0
   -1.2727    1.0027   -4.2521 C   0  0
   -0.0819    0.3170   -3.9507 C   0  0
   -2.6478    2.4606   -5.7733 C   0  0
    0.9488   -2.7039   -3.8257 H   0  0
    0.3791   -2.2123   -5.5571 H   0  0
    1.1382   -4.2192   -6.4273 H   0  0
    2.5621   -4.2492   -3.0536 H   0  0
    1.4215   -7.1075   -3.4937 H   0  0
    1.4805   -7.2811   -1.4777 H   0  0
   -0.8405   -6.2255   -3.1622 H   0  0
   -0.2707   -4.7114   -1.5957 H   0  0
   -1.0489   -4.4732   -5.0376 H   0  0
   -0.3201   -7.0062   -5.1155 H   0  0
    6.7708   -4.8936   -6.6246 H   0  0
    4.8331   -6.1981   -5.7654 H   0  0
    5.1480   -4.1630   -1.9581 H   0  0
    7.0941   -2.8673   -2.8134 H   0  0
    9.5835   -3.7791   -3.9866 H   0  0
    9.3855   -4.6735   -5.5127 H   0  0
   10.1711   -3.0763   -5.5127 H   0  0
    1.8172    1.3298   -6.6091 H   0  0
   -0.2807    2.5497   -7.1401 H   0  0
   -2.1265    0.9141   -3.5803 H   0  0
   -0.0240   -0.2905   -3.0476 H   0  0
   -3.1826    2.7363   -4.8644 H   0  0
   -2.4427    3.3561   -6.3599 H   0  0
   -3.2582    1.7740   -6.3599 H   0  0
  1  2  1  0
  3  2  1  0
  3  4  1  0
  5  4  1  0
  5  6  1  0
  7  5  1  0
  7  8  1  0
  7  9  1  0
  9 10  1  0
  9 11  1  0
 11  3  1  0
 11 12  1  0
  6 13  1  0
 14 15  1  0
 15 16  2  0
 17 18  1  0
 14 18  2  0
 16 13  1  0
 13 17  2  0
 14 19  1  0
 19 20  1  0
  1 21  1  0
 21 24  1  0
 25 26  1  0
 26 27  2  0
 27 28  1  0
 28 29  2  0
 29 24  1  0
 25 24  2  0
 27 30  1  0
 21 22  2  0
 21 23  2  0
  2 31  1  0
  2 32  1  0
  3 33  1  0
  5 34  1  0
  7 35  1  0
  8 36  1  0
  9 37  1  0
 10 38  1  0
 11 39  1  0
 12 40  1  0
 15 41  1  0
 16 42  1  0
 17 43  1  0
 18 44  1  0
 20 45  1  0
 20 46  1  0
 20 47  1  0
 25 48  1  0
 26 49  1  0
 28 50  1  0
 29 51  1  0
 30 52  1  0
 30 53  1  0
 30 54  1  0
M  END
> <Name>
RCF2009 - Intermediário - (52)

> <Clean Energy>
RCF2009 - Intermediário - (52)

$$$$
RCF2009 - Intermediário - (53)
  SciTegic12132405553D

 39 40  0  0  0  0            999 V2000
   -3.8304    2.6972   -3.0694 N   0  0
   -4.8935    2.2235   -2.3075 C   0  0
   -4.9721    0.6721   -2.4126 C   0  0  1  0  0  0
   -3.7029    0.0254   -2.1756 O   0  0
   -3.2283    0.0134   -0.8064 C   0  0  2  0  0  0
   -1.9682   -0.6917   -0.7282 O   0  0
   -4.2502   -0.7203    0.1029 C   0  0  1  0  0  0
   -3.8321   -0.6721    1.4660 O   0  0
   -5.6816   -0.1336   -0.0499 C   0  0  1  0  0  0
   -5.7870    1.1236    0.6176 O   0  0
   -6.0803   -0.0052   -1.5469 C   0  0  2  0  0  0
   -6.3158   -1.3237   -2.0468 O   0  0
   -0.9869   -0.1406   -1.5102 C   0  0
   -0.7689   -0.6329   -2.8139 C   0  0
   -0.1932    0.9190   -1.0256 C   0  0
    0.7812    1.5080   -1.8519 C   0  0
    0.9806    1.0332   -3.1654 C   0  0
    0.2041   -0.0437   -3.6407 C   0  0
    1.8965    1.6347   -3.9850 O   0  0
    3.2011    1.0361   -3.9047 C   0  0
   -3.4506    3.7977   -3.0438 N   0  0
   -3.0664    4.8932   -3.0157 N   0  0
   -4.6384    2.4899   -1.2818 H   0  0
   -5.7806    2.6490   -2.7766 H   0  0
   -5.1807    0.4742   -3.4640 H   0  0
   -3.0561    1.0531   -0.5281 H   0  0
   -4.2568   -1.7848   -0.1313 H   0  0
   -3.7293   -1.5658    1.8010 H   0  0
   -6.4044   -0.7561    0.4775 H   0  0
   -5.7753    0.9837    1.5672 H   0  0
   -7.0091    0.5570   -1.6430 H   0  0
   -6.4242   -1.9304   -1.3107 H   0  0
   -1.3557   -1.4733   -3.1845 H   0  0
   -0.3334    1.2841   -0.0082 H   0  0
    1.3830    2.3343   -1.4735 H   0  0
    0.3567   -0.4223   -4.6514 H   0  0
    3.4786    0.9088   -2.8583 H   0  0
    3.1857    0.0640   -4.3974 H   0  0
    3.9280    1.6817   -4.3974 H   0  0
  1  2  1  0
  3  2  1  0
  3  4  1  0
  5  4  1  0
  5  6  1  0
  7  5  1  0
  7  8  1  0
  7  9  1  0
  9 10  1  0
  9 11  1  0
 11  3  1  0
 11 12  1  0
  6 13  1  0
 15 16  1  0
 16 17  2  0
 17 18  1  0
 14 18  2  0
 14 13  1  0
 13 15  2  0
 17 19  1  0
 19 20  1  0
 21 22  2  0
  1 21  2  0
  2 23  1  0
  2 24  1  0
  3 25  1  0
  5 26  1  0
  7 27  1  0
  8 28  1  0
  9 29  1  0
 10 30  1  0
 11 31  1  0
 12 32  1  0
 14 33  1  0
 15 34  1  0
 16 35  1  0
 18 36  1  0
 20 37  1  0
 20 38  1  0
 20 39  1  0
M  END
> <Name>
RCF2009 - Intermediário - (53)

> <Clean Energy>
RCF2009 - Intermediário - (53)

$$$$
RCF2009 - Intermediário - (54)
  SciTegic12132405553D

 78 82  0  0  0  0            999 V2000
   -0.9168    0.4765   -0.0481 N   0  0
   -1.6124    0.4048   -1.2498 C   0  0
   -3.1263    0.1617   -1.0058 C   0  0  1  0  0  0
   -3.6668    1.2596   -0.2394 O   0  0
   -5.0784    1.1591    0.0617 C   0  0  2  0  0  0
   -5.4532   -0.0108    0.8372 O   0  0
   -5.8884    1.1808   -1.2618 C   0  0  1  0  0  0
   -5.6324    2.4676   -1.8757 O   0  0
   -5.4629   -0.0105   -2.1787 C   0  0  1  0  0  0
   -6.1307    0.1443   -3.4560 O   0  0
   -3.9079   -0.0724   -2.3445 C   0  0  2  0  0  0
   -3.4802   -1.2654   -3.0535 O   0  0
   -4.8610   -0.1226    2.0707 C   0  0
   -5.2053    0.7399    3.1352 C   0  0
   -3.9187   -1.1476    2.2945 C   0  0
   -3.2598   -1.2509    3.5318 C   0  0
   -3.5839   -0.3731    4.5885 C   0  0
   -4.5636    0.6200    4.3827 C   0  0
   -2.9479   -0.4261    5.8022 O   0  0
   -3.1427   -1.6426    6.5490 C   0  0
    0.2414    0.3890    0.0319 N   0  0
    1.3961    0.2891    0.1126 N   0  0
   -6.7435    3.1016   -2.5414 C   0  0
   -6.2927    4.3727   -3.1630 C   0  0
   -5.1795    4.3695   -4.0374 C   0  0
   -4.7465    5.5573   -4.6557 C   0  0
   -5.4283    6.7628   -4.4161 C   0  0
   -6.5378    6.7824   -3.5520 C   0  0
   -6.9652    5.5960   -2.9251 C   0  0
   -6.3577   -1.0303   -4.2643 C   0  0
   -7.1502   -0.6358   -5.4546 C   0  0
   -3.4737   -2.5381   -2.3615 C   0  0
   -3.4091   -3.6422   -3.3460 C   0  0
   -4.3842   -4.6682   -3.3703 C   0  0
   -4.2931   -5.7180   -4.3026 C   0  0
   -3.2328   -5.7498   -5.2262 C   0  0
   -2.2580   -4.7362   -5.2120 C   0  0
   -2.3434   -3.6915   -4.2744 C   0  0
   -8.4652   -1.1213   -5.6522 C   0  0
   -9.2134   -0.7301   -6.7777 C   0  0
   -8.6555    0.1492   -7.7231 C   0  0
   -7.3469    0.6341   -7.5453 C   0  0
   -6.6006    0.2474   -6.4153 C   0  0
   -1.4905    1.3930   -1.6932 H   0  0
   -1.2002   -0.4716   -1.7500 H   0  0
   -3.2769   -0.7071   -0.3650 H   0  0
   -5.2592    1.9942    0.7386 H   0  0
   -6.9667    1.1273   -1.1118 H   0  0
   -5.8069   -0.9676   -1.7867 H   0  0
   -3.6061    0.7112   -3.0395 H   0  0
   -5.9708    1.5027    2.9931 H   0  0
   -3.6980   -1.8657    1.5048 H   0  0
   -2.4947   -2.0144    3.6724 H   0  0
   -4.8266    1.2996    5.1933 H   0  0
   -3.1076   -1.4233    7.6161 H   0  0
   -4.1128   -2.0717    6.2979 H   0  0
   -2.3552   -2.3531    6.2979 H   0  0
   -7.0364    2.4322   -3.3502 H   0  0
   -7.4595    3.3594   -1.7610 H   0  0
   -4.6481    3.4391   -4.2375 H   0  0
   -3.8828    5.5435   -5.3205 H   0  0
   -5.0969    7.6816   -4.8999 H   0  0
   -7.0666    7.7176   -3.3682 H   0  0
   -7.8217    5.6246   -2.2515 H   0  0
   -5.3797   -1.3580   -4.6168 H   0  0
   -6.9754   -1.7022   -3.6684 H   0  0
   -2.5494   -2.5687   -1.7845 H   0  0
   -4.4354   -2.6165   -1.8546 H   0  0
   -5.2139   -4.6496   -2.6637 H   0  0
   -5.0447   -6.5075   -4.3093 H   0  0
   -3.1666   -6.5596   -5.9528 H   0  0
   -1.4362   -4.7604   -5.9277 H   0  0
   -1.5785   -2.9149   -4.2671 H   0  0
   -8.9075   -1.8055   -4.9280 H   0  0
  -10.2260   -1.1084   -6.9173 H   0  0
   -9.2369    0.4546   -8.5930 H   0  0
   -6.9117    1.3088   -8.2825 H   0  0
   -5.5902    0.6345   -6.2834 H   0  0
  1  2  1  0
  3  2  1  0
  3  4  1  0
  5  4  1  0
  5  6  1  0
  7  5  1  0
  7  8  1  0
  7  9  1  0
  9 10  1  0
  9 11  1  0
 11  3  1  0
 11 12  1  0
  6 13  1  0
 15 16  1  0
 16 17  2  0
 17 18  1  0
 14 18  2  0
 14 13  1  0
 13 15  2  0
 17 19  1  0
 19 20  1  0
 21 22  2  0
  1 21  2  0
  8 23  1  0
 23 24  1  0
 25 26  2  0
 26 27  1  0
 27 28  2  0
 28 29  1  0
 24 25  1  0
 24 29  2  0
 10 30  1  0
 30 31  1  0
 12 32  1  0
 32 33  1  0
 34 35  1  0
 35 36  2  0
 36 37  1  0
 37 38  2  0
 38 33  1  0
 34 33  2  0
 39 40  2  0
 40 41  1  0
 41 42  2  0
 42 43  1  0
 31 39  1  0
 31 43  2  0
  2 44  1  0
  2 45  1  0
  3 46  1  0
  5 47  1  0
  7 48  1  0
  9 49  1  0
 11 50  1  0
 14 51  1  0
 15 52  1  0
 16 53  1  0
 18 54  1  0
 20 55  1  0
 20 56  1  0
 20 57  1  0
 23 58  1  0
 23 59  1  0
 25 60  1  0
 26 61  1  0
 27 62  1  0
 28 63  1  0
 29 64  1  0
 30 65  1  0
 30 66  1  0
 32 67  1  0
 32 68  1  0
 34 69  1  0
 35 70  1  0
 36 71  1  0
 37 72  1  0
 38 73  1  0
 39 74  1  0
 40 75  1  0
 41 76  1  0
 42 77  1  0
 43 78  1  0
M  END
> <Name>
RCF2009 - Intermediário - (54)

> <Clean Energy>
RCF2009 - Intermediário - (54)

$$$$
RCF2009 - Intermediário - (55)
  SciTegic12132405553D

 78 82  0  0  0  0            999 V2000
    1.1918   -1.6782   -3.5092 N   0  0
   -0.1067   -1.3904   -2.8880 C   0  0
   -0.5257   -2.4784   -1.8614 C   0  0  1  0  0  0
    0.4515   -2.4979   -0.7955 O   0  0
    0.1799   -3.4257    0.2808 C   0  0  2  0  0  0
    0.1702   -4.8232   -0.1184 O   0  0
   -1.1602   -3.0359    0.9703 C   0  0  1  0  0  0
   -0.9709   -1.7183    1.5529 O   0  0
   -2.3358   -3.0665   -0.0609 C   0  0  1  0  0  0
   -3.5206   -2.5631    0.6089 O   0  0
   -1.9869   -2.2421   -1.3457 C   0  0  2  0  0  0
   -2.9876   -2.4047   -2.3841 O   0  0
    1.3283   -5.3024   -0.6907 C   0  0
    2.4982   -5.5409    0.0657 C   0  0
    1.3328   -5.6155   -2.0661 C   0  0
    2.5006   -6.0890   -2.6918 C   0  0
    3.6732   -6.3151   -1.9401 C   0  0
    3.6595   -6.0470   -0.5549 C   0  0
    4.8478   -6.7259   -2.5231 O   0  0
    4.8121   -8.0073   -3.1821 C   0  0
   -1.5905   -1.4693    2.8346 C   0  0
   -1.3394   -0.0712    3.2679 C   0  0
   -0.8014    0.2294    4.5461 C   0  0
   -0.6303    1.5655    4.9600 C   0  0
   -0.9763    2.6192    4.0950 C   0  0
   -1.4905    2.3341    2.8173 C   0  0
   -1.6717    1.0003    2.4075 C   0  0
   -4.8166   -2.8906    0.0658 C   0  0
   -5.8673   -2.3667    0.9767 C   0  0
   -3.0202   -3.6152   -3.1791 C   0  0
   -4.3214   -3.7034   -3.8810 C   0  0
   -5.1607   -4.8353   -3.7411 C   0  0
   -6.3921   -4.9010   -4.4200 C   0  0
   -6.8040   -3.8318   -5.2349 C   0  0
   -5.9779   -2.7041   -5.3850 C   0  0
   -4.7427   -2.6404   -4.7140 C   0  0
   -6.0787   -0.9720    1.0968 C   0  0
   -7.0823   -0.4645    1.9454 C   0  0
   -7.8771   -1.3422    2.7025 C   0  0
   -7.6811   -2.7300    2.5938 C   0  0
   -6.6840   -3.2372    1.7389 C   0  0
    1.4492   -2.6312   -3.7230 H   0  0
    1.8278   -0.9233   -3.7230 H   0  0
    0.0434   -0.4644   -2.3329 H   0  0
   -0.8264   -1.4250   -3.7059 H   0  0
   -0.4759   -3.4803   -2.2876 H   0  0
    1.0591   -3.3605    0.9217 H   0  0
   -1.4186   -3.6915    1.8018 H   0  0
   -2.5893   -4.0801   -0.3714 H   0  0
   -2.0836   -1.1817   -1.1124 H   0  0
    2.5050   -5.3331    1.1357 H   0  0
    0.4227   -5.4900   -2.6526 H   0  0
    2.4968   -6.2818   -3.7646 H   0  0
    4.5534   -6.2323    0.0406 H   0  0
    4.7901   -8.8000   -2.4342 H   0  0
    3.9201   -8.0708   -3.8052 H   0  0
    5.6993   -8.1203   -3.8052 H   0  0
   -2.6644   -1.5667    2.6753 H   0  0
   -1.0839   -2.1206    3.5468 H   0  0
   -0.5153   -0.5780    5.2201 H   0  0
   -0.2300    1.7839    5.9501 H   0  0
   -0.8463    3.6534    4.4138 H   0  0
   -1.7495    3.1498    2.1422 H   0  0
   -2.0729    0.7954    1.4149 H   0  0
   -4.9016   -2.3480   -0.8758 H   0  0
   -4.8887   -3.9781    0.0765 H   0  0
   -2.2494   -3.5044   -3.9417 H   0  0
   -2.9760   -4.4471   -2.4763 H   0  0
   -4.8555   -5.6652   -3.1039 H   0  0
   -7.0272   -5.7806   -4.3144 H   0  0
   -7.7635   -3.8771   -5.7502 H   0  0
   -6.2953   -1.8785   -6.0220 H   0  0
   -4.1086   -1.7627   -4.8402 H   0  0
   -5.4597   -0.2787    0.5273 H   0  0
   -7.2443    0.6110    2.0165 H   0  0
   -8.6425   -0.9483    3.3712 H   0  0
   -8.3025   -3.4132    3.1727 H   0  0
   -6.5429   -4.3155    1.6663 H   0  0
  1  2  1  0
  3  2  1  0
  3  4  1  0
  5  4  1  0
  5  6  1  0
  7  5  1  0
  7  8  1  0
  7  9  1  0
  9 10  1  0
  9 11  1  0
 11  3  1  0
 11 12  1  0
  6 13  1  0
 15 16  1  0
 16 17  2  0
 17 18  1  0
 14 18  2  0
 14 13  1  0
 13 15  2  0
 17 19  1  0
 19 20  1  0
  8 21  1  0
 21 22  1  0
 23 24  2  0
 24 25  1  0
 25 26  2  0
 26 27  1  0
 22 23  1  0
 22 27  2  0
 10 28  1  0
 28 29  1  0
 12 30  1  0
 30 31  1  0
 32 33  1  0
 33 34  2  0
 34 35  1  0
 35 36  2  0
 36 31  1  0
 32 31  2  0
 37 38  2  0
 38 39  1  0
 39 40  2  0
 40 41  1  0
 29 37  1  0
 29 41  2  0
  1 42  1  0
  1 43  1  0
  2 44  1  0
  2 45  1  0
  3 46  1  0
  5 47  1  0
  7 48  1  0
  9 49  1  0
 11 50  1  0
 14 51  1  0
 15 52  1  0
 16 53  1  0
 18 54  1  0
 20 55  1  0
 20 56  1  0
 20 57  1  0
 21 58  1  0
 21 59  1  0
 23 60  1  0
 24 61  1  0
 25 62  1  0
 26 63  1  0
 27 64  1  0
 28 65  1  0
 28 66  1  0
 30 67  1  0
 30 68  1  0
 32 69  1  0
 33 70  1  0
 34 71  1  0
 35 72  1  0
 36 73  1  0
 37 74  1  0
 38 75  1  0
 39 76  1  0
 40 77  1  0
 41 78  1  0
M  END
> <Name>
RCF2009 - Intermediário - (55)

> <Clean Energy>
RCF2009 - Intermediário - (55)

$$$$
RCF2009 - Intermediário - (56)
  SciTegic12132405553D

 89 93  0  0  0  0            999 V2000
    0.0410   -3.7737    3.3127 N   0  0
   -0.0802   -4.5809    2.1378 C   0  0
   -1.2689   -4.1784    1.2097 C   0  0  1  0  0  0
   -1.4466   -2.7455    1.2087 O   0  0
   -2.4750   -2.2524    0.3179 C   0  0  2  0  0  0
   -3.8049   -2.7737    0.5523 O   0  0
   -2.0950   -2.5764   -1.1458 C   0  0  1  0  0  0
   -0.8579   -1.8704   -1.3935 O   0  0
   -1.9603   -4.1178   -1.3443 C   0  0  1  0  0  0
   -1.4229   -4.3199   -2.6737 O   0  0
   -1.0522   -4.7566   -0.2369 C   0  0  2  0  0  0
   -1.0389   -6.2066   -0.2662 O   0  0
   -4.3939   -2.3943    1.7243 C   0  0
   -4.8083   -1.0647    1.9485 C   0  0
   -4.6527   -3.3714    2.7032 C   0  0
   -5.2654   -3.0165    3.9182 C   0  0
   -5.6471   -1.6782    4.1634 C   0  0
   -5.4154   -0.7084    3.1667 C   0  0
   -6.1841   -1.2649    5.3578 O   0  0
   -7.4357   -1.8738    5.7190 C   0  0
   -0.7057   -1.2323   -2.6774 C   0  0
    0.6129   -0.5575   -2.7375 C   0  0
    1.7775   -1.2508   -2.3319 C   0  0
    3.0355   -0.6261   -2.3740 C   0  0
    3.1506    0.6956   -2.8404 C   0  0
    2.0048    1.3943   -3.2606 C   0  0
    0.7423    0.7730   -3.2053 C   0  0
   -1.5596   -5.6204   -3.2773 C   0  0
   -0.9383   -5.5772   -4.6232 C   0  0
   -2.1837   -6.9464    0.2145 C   0  0
   -2.0252   -8.3723   -0.1571 C   0  0
   -2.9987   -9.0549   -0.9256 C   0  0
   -2.8205  -10.4074   -1.2736 C   0  0
   -1.6663  -11.0940   -0.8581 C   0  0
   -0.6962  -10.4313   -0.0868 C   0  0
   -0.8776   -9.0819    0.2674 C   0  0
   -1.7110   -5.7404   -5.7968 C   0  0
   -1.1085   -5.6905   -7.0684 C   0  0
    0.2785   -5.4907   -7.1830 C   0  0
    1.0607   -5.3299   -6.0255 C   0  0
    0.4573   -5.3751   -4.7540 C   0  0
    0.1555   -4.2195    4.5958 C   0  0
    0.0454   -5.4361    4.8806 O   0  0
    0.4511   -3.2517    5.6787 C   0  0
    1.8636   -2.6206    5.5225 C   0  0
    2.2189   -1.6977    6.6189 C   0  0
    2.3639   -2.1210    7.7887 O   0  0
    2.4271   -0.3817    6.3765 O   0  0
    0.0464   -2.7674    3.2259 H   0  0
    0.8419   -4.3905    1.5886 H   0  0
   -0.2894   -5.5792    2.5221 H   0  0
   -2.2195   -4.5286    1.6120 H   0  0
   -2.5367   -1.1973    0.5848 H   0  0
   -2.8109   -2.2072   -1.8801 H   0  0
   -2.9215   -4.6316   -1.3272 H   0  0
   -0.0231   -4.5407   -0.5239 H   0  0
   -4.6588   -0.3094    1.1770 H   0  0
   -4.3769   -4.4098    2.5192 H   0  0
   -5.4453   -3.7819    4.6731 H   0  0
   -5.7085    0.3271    3.3396 H   0  0
   -7.5198   -1.9148    6.8049 H   0  0
   -8.2573   -1.2839    5.3129 H   0  0
   -7.4786   -2.8844    5.3129 H   0  0
   -0.6941   -2.0324   -3.4176 H   0  0
   -1.4693   -0.4560   -2.7260 H   0  0
    1.7046   -2.2806   -1.9822 H   0  0
    3.9226   -1.1670   -2.0446 H   0  0
    4.1273    1.1782   -2.8763 H   0  0
    2.0952    2.4162   -3.6288 H   0  0
   -0.1406    1.3255   -3.5268 H   0  0
   -0.9739   -6.3084   -2.6676 H   0  0
   -2.6279   -5.7879   -3.4145 H   0  0
   -2.1537   -6.8894    1.3026 H   0  0
   -3.0485   -6.5640   -0.3277 H   0  0
   -3.8972   -8.5323   -1.2537 H   0  0
   -3.5767  -10.9234   -1.8651 H   0  0
   -1.5237  -12.1389   -1.1337 H   0  0
    0.1977  -10.9645    0.2369 H   0  0
   -0.1233   -8.5825    0.8753 H   0  0
   -2.7855   -5.9070   -5.7202 H   0  0
   -1.7167   -5.8066   -7.9655 H   0  0
    0.7463   -5.4606   -8.1670 H   0  0
    2.1353   -5.1702   -6.1138 H   0  0
    1.0752   -5.2527   -3.8645 H   0  0
   -0.2750   -2.4483    5.5543 H   0  0
    0.4617   -3.8394    6.5966 H   0  0
    2.5843   -3.4350    5.5962 H   0  0
    1.8351   -1.9973    4.6287 H   0  0
    2.5016    0.0893    7.2097 H   0  0
  1  2  1  0
  3  2  1  0
  3  4  1  0
  5  4  1  0
  5  6  1  0
  7  5  1  0
  7  8  1  0
  7  9  1  0
  9 10  1  0
  9 11  1  0
 11  3  1  0
 11 12  1  0
  6 13  1  0
 15 16  1  0
 16 17  2  0
 17 18  1  0
 14 18  2  0
 14 13  1  0
 13 15  2  0
 17 19  1  0
 19 20  1  0
  8 21  1  0
 21 22  1  0
 23 24  2  0
 24 25  1  0
 25 26  2  0
 26 27  1  0
 22 23  1  0
 22 27  2  0
 10 28  1  0
 28 29  1  0
 12 30  1  0
 30 31  1  0
 32 33  1  0
 33 34  2  0
 34 35  1  0
 35 36  2  0
 36 31  1  0
 32 31  2  0
 37 38  2  0
 38 39  1  0
 39 40  2  0
 40 41  1  0
 29 37  1  0
 29 41  2  0
  1 42  1  0
 42 43  2  0
 42 44  1  0
 44 45  1  0
 45 46  1  0
 46 48  1  0
 46 47  2  0
  1 49  1  0
  2 50  1  0
  2 51  1  0
  3 52  1  0
  5 53  1  0
  7 54  1  0
  9 55  1  0
 11 56  1  0
 14 57  1  0
 15 58  1  0
 16 59  1  0
 18 60  1  0
 20 61  1  0
 20 62  1  0
 20 63  1  0
 21 64  1  0
 21 65  1  0
 23 66  1  0
 24 67  1  0
 25 68  1  0
 26 69  1  0
 27 70  1  0
 28 71  1  0
 28 72  1  0
 30 73  1  0
 30 74  1  0
 32 75  1  0
 33 76  1  0
 34 77  1  0
 35 78  1  0
 36 79  1  0
 37 80  1  0
 38 81  1  0
 39 82  1  0
 40 83  1  0
 41 84  1  0
 44 85  1  0
 44 86  1  0
 45 87  1  0
 45 88  1  0
 48 89  1  0
M  END
> <Name>
RCF2009 - Intermediário - (56)

> <Clean Energy>
RCF2009 - Intermediário - (56)

$$$$
RCF2009 - Intermediário - (58)
  SciTegic12132405553D

365384  0  0  0  0            999 V2000
    8.3356    6.1630    6.1265 N   0  0
    9.5528    6.4464    6.8024 C   0  0
    9.3551    7.3873    8.0191 C   0  0  1  0  0  0
    8.1039    7.0709    8.6673 O   0  0
    7.7949    7.8710    9.8286 C   0  0  2  0  0  0
    7.6490    9.2881    9.5505 O   0  0
    8.8809    7.6154   10.9121 C   0  0  1  0  0  0
    8.7515    6.2118   11.2560 O   0  0
   10.3062    7.9718   10.3716 C   0  0  1  0  0  0
   11.2391    7.5271   11.3795 O   0  0
   10.5751    7.2826    8.9930 C   0  0  2  0  0  0
   11.8387    7.6325    8.3667 O   0  0
    6.5945    9.6266    8.7327 C   0  0
    5.2620    9.6292    9.2056 C   0  0
    6.8489   10.0439    7.4083 C   0  0
    5.7927   10.4197    6.5586 C   0  0
    4.4655   10.4208    7.0341 C   0  0
    4.2043   10.0158    8.3591 C   0  0
    3.4303   10.7988    6.2214 O   0  0
    3.2150   12.2200    6.2221 C   0  0
    9.0236    5.8097   12.6143 C   0  0
    8.6958    4.3703   12.7493 C   0  0
    9.4049    3.4145   11.9834 C   0  0
    9.1312    2.0411   12.1176 C   0  0
    8.1461    1.6019   13.0211 C   0  0
    7.4198    2.5421   13.7738 C   0  0
    7.6923    3.9168   13.6394 C   0  0
   12.5643    8.0855   11.4163 C   0  0
   13.3348    7.3730   12.4656 C   0  0
   12.0050    8.9450    7.7858 C   0  0
   13.3991    9.1224    7.3054 C   0  0
   14.2221   10.1625    7.8012 C   0  0
   15.5245   10.3498    7.3002 C   0  0
   16.0275    9.4952    6.3037 C   0  0
   15.2262    8.4496    5.8117 C   0  0
   13.9233    8.2619    6.3111 C   0  0
   13.9462    8.0727   13.5335 C   0  0
   14.6549    7.3795   14.5332 C   0  0
   14.7559    5.9773   14.4832 C   0  0
   14.1725    5.2706   13.4169 C   0  0
   13.4731    5.9638   12.4111 C   0  0
    8.0680    6.3397    4.8087 C   0  0
    8.8290    6.9840    4.0490 O   0  0
    6.8741    5.6556    4.2775 C   0  0
    7.0053    4.1201    4.4928 C   0  0
    5.8004    3.3894    4.0934 C   0  0
    5.4970    3.3498    2.8770 O   0  0
    5.0335    2.7741    5.0483 O   0  0
    3.0356    1.4454    5.9313 C   0  0  1  0  0  0
    3.8702    0.5595    6.9208 C   0  0
    1.8930    0.6082    5.2576 C   0  0
    2.4989    2.6220    6.8189 C   0  0
    3.8804    1.9918    4.7279 C   0  0
   -0.3751    7.2940    3.7998 N   0  0
   -1.4657    7.7185    2.9942 C   0  0
   -1.0390    8.0588    1.5427 C   0  0  1  0  0  0
   -0.0089    7.1385    1.1210 O   0  0
    0.4786    7.3371   -0.2233 C   0  0  2  0  0  0
    1.1084    8.6265   -0.4412 O   0  0
   -0.6946    7.1046   -1.2173 C   0  0  1  0  0  0
   -1.0651    5.7121   -1.0487 O   0  0
   -1.8816    8.0814   -0.9211 C   0  0  1  0  0  0
   -2.9697    7.6578   -1.7698 O   0  0
   -2.2808    8.0414    0.5912 C   0  0  2  0  0  0
   -3.3127    8.9878    0.9798 O   0  0
    2.2635    8.8508    0.2736 C   0  0
    3.4879    8.2432   -0.0885 C   0  0
    2.2459    9.7576    1.3553 C   0  0
    3.4171   10.0250    2.0871 C   0  0
    4.6358    9.4170    1.7229 C   0  0
    4.6639    8.5184    0.6367 C   0  0
    5.7857    9.6807    2.4180 O   0  0
    6.4651   10.8545    1.9417 C   0  0
   -1.5394    4.9834   -2.1999 C   0  0
   -1.7226    3.5647   -1.8111 C   0  0
   -0.9863    2.5241   -2.4274 C   0  0
   -1.1997    1.1809   -2.0637 C   0  0
   -2.1517    0.8590   -1.0797 C   0  0
   -2.8747    1.8855   -0.4448 C   0  0
   -2.6629    3.2279   -0.8083 C   0  0
   -4.0302    8.5795   -2.0779 C   0  0
   -5.0582    7.8524   -2.8634 C   0  0
   -2.9928   10.3944    1.0625 C   0  0
   -4.2142   11.1830    1.3658 C   0  0
   -4.6692   12.2008    0.4929 C   0  0
   -5.7998   12.9745    0.8178 C   0  0
   -6.4982   12.7366    2.0145 C   0  0
   -6.0656   11.7199    2.8844 C   0  0
   -4.9345   10.9463    2.5613 C   0  0
   -5.6577    6.6817   -2.3361 C   0  0
   -6.6097    5.9625   -3.0831 C   0  0
   -6.9864    6.4113   -4.3611 C   0  0
   -6.4240    7.5899   -4.8841 C   0  0
   -5.4637    8.3038   -4.1423 C   0  0
    0.0168    7.8124    4.9902 C   0  0
   -0.4356    8.8942    5.4336 O   0  0
    0.9421    6.9946    5.7966 C   0  0
    0.2903    5.6180    6.1150 C   0  0
    1.2022    4.7102    6.8146 C   0  0
    1.5489    4.9921    7.9867 O   0  0
    1.6579    3.5848    6.1788 O   0  0
   -1.7299   -2.7506    9.1042 N   0  0
   -2.6710   -2.7644   10.1685 C   0  0
   -2.0706   -3.3123   11.4892 C   0  0  1  0  0  0
   -0.6983   -2.8776   11.6049 O   0  0
   -0.0154   -3.3128   12.8001 C   0  0  2  0  0  0
    0.1058   -4.7540   12.9224 O   0  0
   -0.7335   -2.6981   14.0351 C   0  0  1  0  0  0
   -0.5721   -1.2632   13.8931 O   0  0
   -2.2372   -3.1309   14.0815 C   0  0  1  0  0  0
   -2.8413   -2.3653   15.1458 O   0  0
   -2.9424   -2.8677   12.7099 C   0  0  2  0  0  0
   -4.3184   -3.3274   12.6279 O   0  0
    0.8781   -5.3679   11.9622 C   0  0
    2.2899   -5.2931   11.9885 C   0  0
    0.2549   -6.1452   10.9620 C   0  0
    1.0210   -6.8042    9.9835 C   0  0
    2.4284   -6.7270   10.0133 C   0  0
    3.0589   -5.9615   11.0156 C   0  0
    3.1858   -7.3762    9.0752 O   0  0
    3.4577   -8.7423    9.4304 C   0  0
   -0.4391   -0.4656   15.0877 C   0  0
   -0.1536    0.9325   14.6859 C   0  0
   -1.1052    1.6516   13.9241 C   0  0
   -0.8683    2.9890   13.5574 C   0  0
    0.3221    3.6287   13.9485 C   0  0
    1.2854    2.9197   14.6887 C   0  0
    1.0497    1.5810   15.0552 C   0  0
   -4.0656   -2.8252   15.7449 C   0  0
   -4.5152   -1.7993   16.7185 C   0  0
   -4.5910   -4.7436   12.5392 C   0  0
   -6.0552   -4.9893   12.5779 C   0  0
   -6.6400   -5.7969   13.5833 C   0  0
   -8.0226   -6.0626   13.5785 C   0  0
   -8.8430   -5.5177   12.5752 C   0  0
   -8.2779   -4.7027   11.5782 C   0  0
   -6.8953   -4.4372   11.5813 C   0  0
   -4.7414   -2.1231   18.0779 C   0  0
   -5.1462   -1.1333   18.9935 C   0  0
   -5.3232    0.1948   18.5647 C   0  0
   -5.1234    0.5270   17.2133 C   0  0
   -4.7293   -0.4642   16.2949 C   0  0
   -1.8654   -3.3208    7.8811 C   0  0
   -2.7896   -4.1244    7.6130 O   0  0
   -0.9216   -2.8809    6.8366 C   0  0
   -1.0533   -1.3459    6.6181 C   0  0
   -0.0612   -0.8229    5.6759 C   0  0
   -0.1422   -1.1585    4.4700 O   0  0
    0.9288    0.0102    6.1276 O   0  0
    5.9120   -4.9250    4.6948 N   0  0
    6.7265   -5.6190    3.7602 C   0  0
    5.8971   -6.3523    2.6742 C   0  0  1  0  0  0
    4.7458   -5.5503    2.3320 O   0  0
    3.8844   -6.1139    1.3197 C   0  0  2  0  0  0
    3.2793   -7.3792    1.6935 O   0  0
    4.6897   -6.2406   -0.0046 C   0  0  1  0  0  0
    5.0283   -4.8793   -0.3751 O   0  0
    5.9551   -7.1408    0.1932 C   0  0  1  0  0  0
    6.7145   -7.0381   -1.0302 O   0  0
    6.7907   -6.6749    1.4312 C   0  0  2  0  0  0
    7.9350   -7.5115    1.7507 O   0  0
    2.4064   -7.3281    2.7568 C   0  0
    1.1028   -6.7978    2.6196 C   0  0
    2.7928   -7.8748    3.9996 C   0  0
    1.9117   -7.8591    5.0960 C   0  0
    0.6128   -7.3294    4.9550 C   0  0
    0.2154   -6.7912    3.7138 C   0  0
   -0.2593   -7.3218    6.0106 O   0  0
   -0.9951   -8.5508    6.1311 C   0  0
    5.0975   -4.5461   -1.7769 C   0  0
    5.3230   -3.0860   -1.8989 C   0  0
    4.3868   -2.2405   -2.5420 C   0  0
    4.6371   -0.8613   -2.6736 C   0  0
    5.8260   -0.3082   -2.1647 C   0  0
    6.7544   -1.1342   -1.5050 C   0  0
    6.5057   -2.5126   -1.3739 C   0  0
    7.6741   -8.0584   -1.3580 C   0  0
    8.3811   -7.6445   -2.5955 C   0  0
    7.7214   -8.8144    2.3378 C   0  0
    9.0128   -9.5346    2.4761 C   0  0
    9.2297  -10.7849    1.8479 C   0  0
   10.4405  -11.4803    2.0288 C   0  0
   11.4562  -10.9326    2.8318 C   0  0
   11.2599   -9.6853    3.4508 C   0  0
   10.0491   -8.9896    3.2717 C   0  0
    9.0565   -6.3999   -2.6446 C   0  0
    9.7031   -5.9787   -3.8218 C   0  0
    9.6963   -6.8020   -4.9616 C   0  0
    9.0579   -8.0547   -4.9174 C   0  0
    8.4015   -8.4719   -3.7439 C   0  0
    5.9233   -5.0498    6.0453 C   0  0
    6.5388   -5.9724    6.6297 O   0  0
    5.2479   -3.9880    6.8145 C   0  0
    5.9003   -2.6109    6.4994 C   0  0
    5.2012   -1.4953    7.1413 C   0  0
    5.2389   -1.4020    8.3916 O   0  0
    4.5224   -0.5877    6.3706 O   0  0
    7.5590    5.7869    6.6515 H   0  0
    9.8846    5.4798    7.1815 H   0  0
   10.1549    6.9789    6.0662 H   0  0
    9.2282    8.4249    7.7103 H   0  0
    6.7850    7.5789   10.1164 H   0  0
    8.7302    8.1832   11.8303 H   0  0
   10.4669    9.0429   10.2497 H   0  0
   10.7820    6.2319    9.1963 H   0  0
    5.0483    9.3305   10.2319 H   0  0
    7.8733   10.0762    7.0372 H   0  0
    6.0032   10.7108    5.5295 H   0  0
    3.1797   10.0015    8.7309 H   0  0
    3.1606   12.5787    7.2499 H   0  0
    4.0404   12.7128    5.7084 H   0  0
    2.2805   12.4462    5.7084 H   0  0
   10.0986    5.9156   12.7602 H   0  0
    8.3304    6.3639   13.2471 H   0  0
   10.1720    3.7403   11.2809 H   0  0
    9.6836    1.3157   11.5203 H   0  0
    7.9463    0.5367   13.1374 H   0  0
    6.6448    2.2050   14.4622 H   0  0
    7.1223    4.6351   14.2287 H   0  0
   13.0251    7.8554   10.4557 H   0  0
   12.4556    9.1224   11.7342 H   0  0
   11.3582    8.9719    6.9088 H   0  0
   11.8528    9.6567    8.5972 H   0  0
   13.8479   10.8280    8.5791 H   0  0
   16.1452   11.1590    7.6849 H   0  0
   17.0348    9.6426    5.9142 H   0  0
   15.6157    7.7834    5.0420 H   0  0
   13.3154    7.4437    5.9247 H   0  0
   13.8702    9.1587   13.5868 H   0  0
   15.1263    7.9296   15.3476 H   0  0
   15.2854    5.4393   15.2695 H   0  0
   14.2624    4.1853   13.3700 H   0  0
   13.0354    5.4052   11.5838 H   0  0
    6.0387    6.0038    4.8849 H   0  0
    6.8809    5.8399    3.2032 H   0  0
    7.7855    3.7656    3.8193 H   0  0
    7.0938    3.9515    5.5660 H   0  0
    4.6995    1.1716    7.2753 H   0  0
    3.1672    0.1285    7.6338 H   0  0
    1.2971    1.3013    4.6639 H   0  0
    2.3653   -0.2509    4.7810 H   0  0
    1.8453    2.1814    7.5718 H   0  0
    3.3636    3.2108    7.1252 H   0  0
    4.3007    1.1271    4.2143 H   0  0
    3.2464    2.6930    4.1853 H   0  0
    0.1963    6.5230    3.4850 H   0  0
   -2.1253    6.8518    2.9510 H   0  0
   -1.8078    8.6408    3.4638 H   0  0
   -0.5525    9.0324    1.4829 H   0  0
    1.3122    6.6429   -0.3303 H   0  0
   -0.4189    7.2362   -2.2637 H   0  0
   -1.6656    9.1166   -1.1852 H   0  0
   -2.8404    7.1195    0.7493 H   0  0
    3.5254    7.5565   -0.9342 H   0  0
    1.3167   10.2574    1.6289 H   0  0
    3.3802   10.7049    2.9383 H   0  0
    5.5994    8.0342    0.3563 H   0  0
    6.8073   11.4459    2.7909 H   0  0
    7.3218   10.5581    1.3365 H   0  0
    5.7812   11.4496    1.3365 H   0  0
   -2.5233    5.3869   -2.4391 H   0  0
   -0.7408    5.0193   -2.9408 H   0  0
   -0.2456    2.7601   -3.1915 H   0  0
   -0.6267    0.3884   -2.5451 H   0  0
   -2.3285   -0.1822   -0.8100 H   0  0
   -3.6007    1.6402    0.3303 H   0  0
   -3.2314    4.0128   -0.3093 H   0  0
   -4.4815    8.8628   -1.1270 H   0  0
   -3.5997    9.3431   -2.7258 H   0  0
   -2.3218   10.5026    1.9147 H   0  0
   -2.6608   10.6884    0.0668 H   0  0
   -4.1420   12.3913   -0.4419 H   0  0
   -6.1353   13.7601    0.1408 H   0  0
   -7.3716   13.3379    2.2668 H   0  0
   -6.6080   11.5312    3.8109 H   0  0
   -4.6140   10.1578    3.2421 H   0  0
   -5.3828    6.3296   -1.3419 H   0  0
   -7.0555    5.0571   -2.6714 H   0  0
   -7.7131    5.8468   -4.9453 H   0  0
   -6.7327    7.9504   -5.8653 H   0  0
   -5.0312    9.2124   -4.5611 H   0  0
    1.8069    6.8107    5.1591 H   0  0
    1.0637    7.5280    6.7394 H   0  0
   -0.5207    5.8006    6.8200 H   0  0
    0.0845    5.1306    5.1620 H   0  0
   -0.8494   -2.2731    9.2340 H   0  0
   -2.9174   -1.7146   10.3271 H   0  0
   -3.4419   -3.4617    9.8407 H   0  0
   -1.9947   -4.3996   11.4773 H   0  0
    1.0194   -2.9963   12.6692 H   0  0
   -0.2858   -2.9758   14.9893 H   0  0
   -2.3769   -4.1816   14.3359 H   0  0
   -3.1271   -1.7954   12.6466 H   0  0
    2.7898   -4.7151   12.7657 H   0  0
   -0.8310   -6.2376   10.9451 H   0  0
    0.5230   -7.3760    9.2005 H   0  0
    4.1461   -5.8862   11.0384 H   0  0
    3.4768   -8.8386   10.5160 H   0  0
    2.6783   -9.3858    9.0223 H   0  0
    4.4240   -9.0384    9.0223 H   0  0
   -1.4134   -0.4733   15.5764 H   0  0
    0.4382   -0.8402   15.6152 H   0  0
   -2.0327    1.1692   13.6156 H   0  0
   -1.6089    3.5308   12.9690 H   0  0
    0.4976    4.6702   13.6790 H   0  0
    2.2156    3.4084   14.9786 H   0  0
    1.8042    1.0428   15.6289 H   0  0
   -4.8056   -2.8677   14.9457 H   0  0
   -3.8174   -3.7259   16.3063 H   0  0
   -4.2392   -5.0585   11.5568 H   0  0
   -4.1674   -5.1902   13.4387 H   0  0
   -6.0173   -6.2199   14.3716 H   0  0
   -8.4592   -6.6922   14.3538 H   0  0
   -9.9128   -5.7262   12.5704 H   0  0
   -8.9128   -4.2760   10.8017 H   0  0
   -6.4718   -3.7991   10.8057 H   0  0
   -4.6021   -3.1473   18.4238 H   0  0
   -5.3229   -1.3957   20.0366 H   0  0
   -5.6147    0.9651   19.2786 H   0  0
   -5.2740    1.5531   16.8775 H   0  0
   -4.5890   -0.1960   15.2478 H   0  0
    0.0738   -3.0729    7.2372 H   0  0
   -1.2443   -3.3736    5.9195 H   0  0
   -2.0164   -1.1699    6.1390 H   0  0
   -0.8208   -0.8639    7.5677 H   0  0
    5.2366   -4.2554    4.3547 H   0  0
    7.3008   -4.8356    3.2656 H   0  0
    7.2373   -6.3765    4.3546 H   0  0
    5.4615   -7.2762    3.0547 H   0  0
    3.0260   -5.4441    1.2699 H   0  0
    4.1170   -6.6621   -0.8307 H   0  0
    5.7182   -8.1965    0.3248 H   0  0
    7.3281   -5.7746    1.1330 H   0  0
    0.7791   -6.3904    1.6618 H   0  0
    3.7836   -8.3145    4.1140 H   0  0
    2.2361   -8.2583    6.0570 H   0  0
   -0.7826   -6.3682    3.5997 H   0  0
   -1.1369   -8.7876    7.1856 H   0  0
   -1.9668   -8.4412    5.6495 H   0  0
   -0.4396   -9.3555    5.6495 H   0  0
    5.9807   -5.0478   -2.1722 H   0  0
    4.1147   -4.7616   -2.1963 H   0  0
    3.4617   -2.6566   -2.9408 H   0  0
    3.9089   -0.2204   -3.1705 H   0  0
    6.0271    0.7568   -2.2812 H   0  0
    7.6685   -0.7052   -1.0945 H   0  0
    7.2346   -3.1409   -0.8619 H   0  0
    8.4046   -8.0691   -0.5491 H   0  0
    7.1040   -8.9581   -1.5895 H   0  0
    7.3454   -8.6346    3.3450 H   0  0
    7.1179   -9.3734    1.6225 H   0  0
    8.4540  -11.2180    1.2164 H   0  0
   10.5920  -12.4456    1.5457 H   0  0
   12.3922  -11.4729    2.9739 H   0  0
   12.0476   -9.2571    4.0707 H   0  0
    9.9129   -8.0210    3.7528 H   0  0
    9.0790   -5.7573   -1.7644 H   0  0
   10.2096   -5.0140   -3.8509 H   0  0
   10.1849   -6.4698   -5.8775 H   0  0
    9.0718   -8.7029   -5.7936 H   0  0
    7.9056   -9.4424   -3.7243 H   0  0
    4.2232   -3.9602    6.4440 H   0  0
    5.4423   -4.2129    7.8632 H   0  0
    6.8941   -2.6149    6.9470 H   0  0
    5.7851   -2.4368    5.4296 H   0  0
  1  2  1  0
  3  2  1  0
  3  4  1  0
  5  4  1  0
  5  6  1  0
  7  5  1  0
  7  8  1  0
  7  9  1  0
  9 10  1  0
  9 11  1  0
 11  3  1  0
 11 12  1  0
  6 13  1  0
 15 16  1  0
 16 17  2  0
 17 18  1  0
 14 18  2  0
 14 13  1  0
 13 15  2  0
 17 19  1  0
 19 20  1  0
  8 21  1  0
 21 22  1  0
 23 24  2  0
 24 25  1  0
 25 26  2  0
 26 27  1  0
 22 23  1  0
 22 27  2  0
 10 28  1  0
 28 29  1  0
 12 30  1  0
 30 31  1  0
 32 33  1  0
 33 34  2  0
 34 35  1  0
 35 36  2  0
 36 31  1  0
 32 31  2  0
 37 38  2  0
 38 39  1  0
 39 40  2  0
 40 41  1  0
 29 37  1  0
 29 41  2  0
  1 42  1  0
 42 43  2  0
 42 44  1  0
 44 45  1  0
 45 46  1  0
 46 48  1  0
 46 47  2  0
 49 50  1  0
 49 51  1  0
 49 52  1  0
 49 53  1  0
 48 53  1  0
 54 55  1  0
 56 55  1  0
 56 57  1  0
 58 57  1  0
 58 59  1  0
 60 58  1  0
 60 61  1  0
 60 62  1  0
 62 63  1  0
 62 64  1  0
 64 56  1  0
 64 65  1  0
 59 66  1  0
 68 69  1  0
 69 70  2  0
 70 71  1  0
 67 71  2  0
 67 66  1  0
 66 68  2  0
 70 72  1  0
 72 73  1  0
 61 74  1  0
 74 75  1  0
 76 77  2  0
 77 78  1  0
 78 79  2  0
 79 80  1  0
 75 76  1  0
 75 80  2  0
 63 81  1  0
 81 82  1  0
 65 83  1  0
 83 84  1  0
 85 86  1  0
 86 87  2  0
 87 88  1  0
 88 89  2  0
 89 84  1  0
 85 84  2  0
 90 91  2  0
 91 92  1  0
 92 93  2  0
 93 94  1  0
 82 90  1  0
 82 94  2  0
 54 95  1  0
 95 96  2  0
 95 97  1  0
 97 98  1  0
 98 99  1  0
 99101  1  0
 99100  2  0
102103  1  0
104103  1  0
104105  1  0
106105  1  0
106107  1  0
108106  1  0
108109  1  0
108110  1  0
110111  1  0
110112  1  0
112104  1  0
112113  1  0
107114  1  0
116117  1  0
117118  2  0
118119  1  0
115119  2  0
115114  1  0
114116  2  0
118120  1  0
120121  1  0
109122  1  0
122123  1  0
124125  2  0
125126  1  0
126127  2  0
127128  1  0
123124  1  0
123128  2  0
111129  1  0
129130  1  0
113131  1  0
131132  1  0
133134  1  0
134135  2  0
135136  1  0
136137  2  0
137132  1  0
133132  2  0
138139  2  0
139140  1  0
140141  2  0
141142  1  0
130138  1  0
130142  2  0
102143  1  0
143144  2  0
143145  1  0
145146  1  0
146147  1  0
147149  1  0
147148  2  0
150151  1  0
152151  1  0
152153  1  0
154153  1  0
154155  1  0
156154  1  0
156157  1  0
156158  1  0
158159  1  0
158160  1  0
160152  1  0
160161  1  0
155162  1  0
164165  1  0
165166  2  0
166167  1  0
163167  2  0
163162  1  0
162164  2  0
166168  1  0
168169  1  0
157170  1  0
170171  1  0
172173  2  0
173174  1  0
174175  2  0
175176  1  0
171172  1  0
171176  2  0
159177  1  0
177178  1  0
161179  1  0
179180  1  0
181182  1  0
182183  2  0
183184  1  0
184185  2  0
185180  1  0
181180  2  0
186187  2  0
187188  1  0
188189  2  0
189190  1  0
178186  1  0
178190  2  0
150191  1  0
191192  2  0
191193  1  0
193194  1  0
194195  1  0
195197  1  0
195196  2  0
101 52  1  0
149 51  1  0
197 50  1  0
  1198  1  0
  2199  1  0
  2200  1  0
  3201  1  0
  5202  1  0
  7203  1  0
  9204  1  0
 11205  1  0
 14206  1  0
 15207  1  0
 16208  1  0
 18209  1  0
 20210  1  0
 20211  1  0
 20212  1  0
 21213  1  0
 21214  1  0
 23215  1  0
 24216  1  0
 25217  1  0
 26218  1  0
 27219  1  0
 28220  1  0
 28221  1  0
 30222  1  0
 30223  1  0
 32224  1  0
 33225  1  0
 34226  1  0
 35227  1  0
 36228  1  0
 37229  1  0
 38230  1  0
 39231  1  0
 40232  1  0
 41233  1  0
 44234  1  0
 44235  1  0
 45236  1  0
 45237  1  0
 50238  1  0
 50239  1  0
 51240  1  0
 51241  1  0
 52242  1  0
 52243  1  0
 53244  1  0
 53245  1  0
 54246  1  0
 55247  1  0
 55248  1  0
 56249  1  0
 58250  1  0
 60251  1  0
 62252  1  0
 64253  1  0
 67254  1  0
 68255  1  0
 69256  1  0
 71257  1  0
 73258  1  0
 73259  1  0
 73260  1  0
 74261  1  0
 74262  1  0
 76263  1  0
 77264  1  0
 78265  1  0
 79266  1  0
 80267  1  0
 81268  1  0
 81269  1  0
 83270  1  0
 83271  1  0
 85272  1  0
 86273  1  0
 87274  1  0
 88275  1  0
 89276  1  0
 90277  1  0
 91278  1  0
 92279  1  0
 93280  1  0
 94281  1  0
 97282  1  0
 97283  1  0
 98284  1  0
 98285  1  0
102286  1  0
103287  1  0
103288  1  0
104289  1  0
106290  1  0
108291  1  0
110292  1  0
112293  1  0
115294  1  0
116295  1  0
117296  1  0
119297  1  0
121298  1  0
121299  1  0
121300  1  0
122301  1  0
122302  1  0
124303  1  0
125304  1  0
126305  1  0
127306  1  0
128307  1  0
129308  1  0
129309  1  0
131310  1  0
131311  1  0
133312  1  0
134313  1  0
135314  1  0
136315  1  0
137316  1  0
138317  1  0
139318  1  0
140319  1  0
141320  1  0
142321  1  0
145322  1  0
145323  1  0
146324  1  0
146325  1  0
150326  1  0
151327  1  0
151328  1  0
152329  1  0
154330  1  0
156331  1  0
158332  1  0
160333  1  0
163334  1  0
164335  1  0
165336  1  0
167337  1  0
169338  1  0
169339  1  0
169340  1  0
170341  1  0
170342  1  0
172343  1  0
173344  1  0
174345  1  0
175346  1  0
176347  1  0
177348  1  0
177349  1  0
179350  1  0
179351  1  0
181352  1  0
182353  1  0
183354  1  0
184355  1  0
185356  1  0
186357  1  0
187358  1  0
188359  1  0
189360  1  0
190361  1  0
193362  1  0
193363  1  0
194364  1  0
194365  1  0
M  END
> <Name>
RCF2009 - Intermediário - (58)

> <Clean Energy>
RCF2009 - Intermediário - (58)

$$$$
RCF2009 - Intermediário - (61)
  SciTegic12132405553D

 59 60  0  0  0  0            999 V2000
   -0.3646    0.4645    0.1315 N   0  0
   -1.5894    0.4098    0.8753 C   0  0
   -1.4843   -0.5415    2.0996 C   0  0  1  0  0  0
   -0.4420   -0.0181    2.9599 O   0  0
   -0.2234   -0.7226    4.2046 C   0  0  2  0  0  0
    0.2648   -2.0702    4.0161 O   0  0
   -1.5354   -0.7775    5.0435 C   0  0  1  0  0  0
   -1.9927    0.5265    5.4413 O   0  0
   -2.6646   -1.4466    4.2073 C   0  0  1  0  0  0
   -3.9218   -1.4699    4.9119 O   0  0
   -2.8427   -0.6721    2.8663 C   0  0  2  0  0  0
   -3.9024   -1.2171    2.0565 O   0  0
    1.5524   -2.1743    3.5657 C   0  0
    2.6337   -2.0963    4.4690 C   0  0
    1.8024   -2.4369    2.2040 C   0  0
    3.1183   -2.6420    1.7526 C   0  0
    4.1956   -2.5985    2.6606 C   0  0
    3.9504   -2.3005    4.0171 C   0  0
    5.4673   -2.8462    2.2221 O   0  0
   -0.1944    0.1410   -1.1821 C   0  0
   -1.1334   -0.3054   -1.8834 O   0  0
    1.1185    0.3280   -1.8256 C   0  0
   -4.0384   -2.4585    1.5024 C   0  0
   -3.2013   -3.3687    1.6970 O   0  0
   -5.1974   -2.7376    0.6434 C   0  0
   -4.2593   -2.2316    5.9982 C   0  0
   -3.4583   -3.0627    6.4857 O   0  0
   -5.5983   -2.0852    6.5861 C   0  0
   -1.2688    1.4577    6.1164 C   0  0
   -1.2605    1.4665    7.5834 C   0  0
   -0.6707    2.3423    5.4617 O   0  0
    5.8175   -4.2400    2.3285 C   0  0
    0.4827    0.7685    0.5895 H   0  0
   -1.7296    1.4223    1.2538 H   0  0
   -2.3149   -0.0190    0.1841 H   0  0
   -1.1709   -1.5415    1.7999 H   0  0
    0.5952   -0.1746    4.6712 H   0  0
   -1.3329   -1.2865    5.9858 H   0  0
   -2.4372   -2.5022    4.0587 H   0  0
   -3.2417    0.3230    3.0633 H   0  0
    2.4511   -1.8772    5.5210 H   0  0
    0.9741   -2.4817    1.4968 H   0  0
    3.3038   -2.8352    0.6960 H   0  0
    4.7813   -2.2277    4.7187 H   0  0
    1.8863    0.4374   -1.0597 H   0  0
    1.3456   -0.5386   -2.4465 H   0  0
    1.0945    1.2235   -2.4465 H   0  0
   -6.0681   -2.9472    1.2648 H   0  0
   -5.4003   -1.8710    0.0141 H   0  0
   -4.9836   -3.6015    0.0141 H   0  0
   -5.5207   -2.0937    7.6733 H   0  0
   -6.0369   -1.1419    6.2605 H   0  0
   -6.2304   -2.9113    6.2605 H   0  0
   -1.2584    0.4410    7.9529 H   0  0
   -0.3685    1.9825    7.9386 H   0  0
   -2.1484    1.9825    7.9487 H   0  0
    5.8873   -4.5179    3.3801 H   0  0
    5.0519   -4.8451    1.8429 H   0  0
    6.7782   -4.4114    1.8429 H   0  0
  1  2  1  0
  3  2  1  0
  3  4  1  0
  5  4  1  0
  5  6  1  0
  7  5  1  0
  7  8  1  0
  7  9  1  0
  9 10  1  0
  9 11  1  0
 11  3  1  0
 11 12  1  0
  6 13  1  0
 15 16  1  0
 16 17  2  0
 17 18  1  0
 14 18  2  0
 14 13  1  0
 13 15  2  0
 17 19  1  0
  1 20  1  0
 20 21  2  0
 20 22  1  0
 12 23  1  0
 23 25  1  0
 10 26  1  0
 26 28  1  0
  8 29  1  0
 29 30  1  0
 29 31  2  0
 26 27  2  0
 23 24  2  0
 19 32  1  0
  1 33  1  0
  2 34  1  0
  2 35  1  0
  3 36  1  0
  5 37  1  0
  7 38  1  0
  9 39  1  0
 11 40  1  0
 14 41  1  0
 15 42  1  0
 16 43  1  0
 18 44  1  0
 22 45  1  0
 22 46  1  0
 22 47  1  0
 25 48  1  0
 25 49  1  0
 25 50  1  0
 28 51  1  0
 28 52  1  0
 28 53  1  0
 30 54  1  0
 30 55  1  0
 30 56  1  0
 32 57  1  0
 32 58  1  0
 32 59  1  0
M  END
> <Name>
RCF2009 - Intermediário - (61)

> <Clean Energy>
RCF2009 - Intermediário - (61)

$$$$
RCF2009 - Intermediário - (63)
  SciTegic12132405553D

 32 32  0  0  0  0            999 V2000
   -5.1253    2.0142    2.8821 O   0  0
   -5.8267    1.1524    3.7722 C   0  0
   -5.5702   -0.3342    3.3959 C   0  0  1  0  0  0
   -4.1664   -0.6402    3.2450 O   0  0
   -3.3844   -0.7010    4.4627 C   0  0  2  0  0  0
   -2.0153   -1.0341    4.1365 O   0  0
   -3.9579   -1.7946    5.4053 C   0  0  1  0  0  0
   -3.2351   -1.8313    6.6351 O   0  0
   -5.4773   -1.5875    5.6670 C   0  0  1  0  0  0
   -5.6921   -0.4905    6.5537 O   0  0
   -6.2558   -1.3761    4.3360 C   0  0  2  0  0  0
   -6.3358   -2.6324    3.6580 O   0  0
   -1.3507   -0.0879    3.2695 C   0  0
    0.1180   -0.5041    3.0367 C   0  0
    0.7266    0.4206    2.1960 N   0  0
    1.8334    0.3690    1.8410 N   0  0
    2.9371    0.3294    1.4795 N   0  0
   -4.6104    2.6468    3.3884 H   0  0
   -5.3837    1.3357    4.7511 H   0  0
   -6.8815    1.3682    3.6023 H   0  0
   -5.9693   -0.4540    2.3886 H   0  0
   -3.3942    0.2966    4.9019 H   0  0
   -3.7839   -2.7816    4.9767 H   0  0
   -3.0848   -2.7443    6.8909 H   0  0
   -5.8839   -2.4388    6.2129 H   0  0
   -5.6322   -0.7965    7.4616 H   0  0
   -7.2778   -1.0617    4.5479 H   0  0
   -6.3810   -3.3419    4.3031 H   0  0
   -1.8703   -0.1577    2.3139 H   0  0
   -1.3452    0.8531    3.8196 H   0  0
    0.6560   -0.4238    3.9813 H   0  0
    0.1297   -1.4416    2.4808 H   0  0
  1  2  1  0
  3  2  1  0
  3  4  1  0
  4  5  1  0
  5  6  1  0
  5  7  1  0
  7  8  1  0
  7  9  1  0
  9 10  1  0
  9 11  1  0
  3 11  1  0
 11 12  1  0
  6 13  1  0
 13 14  1  0
 14 15  1  0
 15 16  2  0
 16 17  2  0
  1 18  1  0
  2 19  1  0
  2 20  1  0
  3 21  1  0
  5 22  1  0
  7 23  1  0
  8 24  1  0
  9 25  1  0
 10 26  1  0
 11 27  1  0
 12 28  1  0
 13 29  1  0
 13 30  1  0
 14 31  1  0
 14 32  1  0
M  END
> <Name>
RCF2009 - Intermediário - (63)

> <Clean Energy>
RCF2009 - Intermediário - (63)

$$$$
RCF2009 - Intermediário - (64)
  SciTegic12132405553D

 84 88  0  0  0  0            999 V2000
   -0.9521   -2.8067   -1.7385 O   0  0
   -1.9971   -2.1714   -0.9717 C   0  0
   -2.4176   -3.0458    0.2397 C   0  0  1  0  0  0
   -1.3594   -3.0297    1.2225 O   0  0
   -1.6379   -3.8210    2.4012 C   0  0  2  0  0  0
   -1.8948   -5.2150    2.1147 O   0  0
   -2.8557   -3.2257    3.1581 C   0  0  1  0  0  0
   -2.4545   -1.9045    3.5963 O   0  0
   -4.1143   -3.1890    2.2338 C   0  0  1  0  0  0
   -5.1464   -2.4614    2.9451 O   0  0
   -3.7792   -2.5534    0.8430 C   0  0  2  0  0  0
   -4.8827   -2.6506   -0.0923 O   0  0
   -0.7899   -5.9531    1.5557 C   0  0
   -1.2846   -7.3424    1.0961 C   0  0
   -2.3030   -7.1917    0.1611 N   0  0
   -0.6447   -2.1078   -2.9652 C   0  0
    0.3890   -2.8539   -3.7203 C   0  0
   -5.1595   -3.9084   -0.7518 C   0  0
   -6.5748   -3.8642   -1.3189 C   0  0
   -6.5144   -2.5968    2.5108 C   0  0
   -7.3764   -1.8802    3.4795 C   0  0
   -2.9000   -1.4926    4.9039 C   0  0
   -2.3703   -0.1456    5.2138 C   0  0
   -2.9662   -8.0608   -0.2399 N   0  0
   -3.6386   -8.9175   -0.6449 N   0  0
   -1.6301    0.0985    6.3950 C   0  0
   -2.6148    0.9314    4.3295 C   0  0
   -2.1131    2.2162    4.6082 C   0  0
   -1.3741    2.4433    5.7835 C   0  0
   -1.1321    1.3843    6.6771 C   0  0
   -7.3478   -0.4666    3.5463 C   0  0
   -8.1261    0.2246    4.4935 C   0  0
   -8.9462   -0.4898    5.3855 C   0  0
   -8.9940   -1.8943    5.3221 C   0  0
   -8.2208   -2.5840    4.3695 C   0  0
   -7.6618   -4.7687   -1.0342 C   0  0
   -8.9693   -4.6058   -1.6223 C   0  0
   -9.1642   -3.5211   -2.4968 C   0  0
   -8.1179   -2.6330   -2.7952 C   0  0
   -6.8480   -2.8099   -2.2218 C   0  0
    2.3729   -4.2760   -5.1576 C   0  0
    1.0122   -4.4779   -5.4501 C   0  0
    0.0262   -3.7713   -4.7359 C   0  0
    1.7618   -2.6603   -3.4380 C   0  0
    2.7478   -3.3657   -4.1532 C   0  0
   -1.5470   -1.2588   -0.5808 H   0  0
   -2.8493   -2.1120   -1.6487 H   0  0
   -2.5064   -4.0943   -0.0444 H   0  0
   -0.7001   -3.8152    2.9567 H   0  0
   -3.1172   -3.7791    4.0600 H   0  0
   -4.5332   -4.1786    2.0510 H   0  0
   -3.7113   -1.4733    0.9734 H   0  0
   -0.4823   -5.3957    0.6710 H   0  0
   -0.0895   -6.1003    2.3779 H   0  0
   -1.7548   -7.8402    1.9442 H   0  0
   -0.4776   -7.8352    0.5539 H   0  0
   -1.5556   -2.1255   -3.5636 H   0  0
   -0.2038   -1.1551   -2.6719 H   0  0
   -4.4659   -3.9674   -1.5906 H   0  0
   -5.1367   -4.6689    0.0288 H   0  0
   -6.5912   -2.0771    1.5557 H   0  0
   -6.7586   -3.6571    2.5755 H   0  0
   -3.9848   -1.4053    4.8428 H   0  0
   -2.4481   -2.1867    5.6125 H   0  0
   -1.4410   -0.7141    7.0964 H   0  0
   -3.1968    0.7693    3.4222 H   0  0
   -2.2969    3.0357    3.9135 H   0  0
   -0.9892    3.4394    6.0017 H   0  0
   -0.5591    1.5600    7.5875 H   0  0
   -6.7176    0.0974    2.8587 H   0  0
   -8.0938    1.3133    4.5363 H   0  0
   -9.5435    0.0440    6.1246 H   0  0
   -9.6308   -2.4485    6.0116 H   0  0
   -8.2764   -3.6715    4.3207 H   0  0
   -7.4896   -5.6019   -0.3528 H   0  0
   -9.7926   -5.2880   -1.4105 H   0  0
  -10.1429   -3.3661   -2.9510 H   0  0
   -8.2928   -1.8005   -3.4767 H   0  0
   -6.0539   -2.1108   -2.4843 H   0  0
    3.1364   -4.8246   -5.7090 H   0  0
    0.7219   -5.1818   -6.2300 H   0  0
   -1.0255   -3.9356   -4.9709 H   0  0
    2.0635   -1.9592   -2.6599 H   0  0
    3.8026   -3.2069   -3.9291 H   0  0
  1  2  1  0
  3  2  1  0
  3  4  1  0
  5  4  1  0
  5  6  1  0
  7  5  1  0
  7  8  1  0
  7  9  1  0
  9 10  1  0
  9 11  1  0
 11  3  1  0
 11 12  1  0
  6 13  1  0
 14 15  1  0
  1 16  1  0
 16 17  1  0
 12 18  1  0
 18 19  1  0
 10 20  1  0
 20 21  1  0
  8 22  1  0
 22 23  1  0
 13 14  1  0
 24 25  2  0
 15 24  2  0
 27 28  1  0
 28 29  2  0
 29 30  1  0
 26 30  2  0
 26 23  1  0
 23 27  2  0
 31 32  2  0
 32 33  1  0
 33 34  2  0
 34 35  1  0
 21 31  1  0
 21 35  2  0
 36 37  1  0
 37 38  2  0
 38 39  1  0
 39 40  2  0
 40 19  1  0
 36 19  2  0
 41 42  1  0
 42 43  2  0
 44 45  1  0
 41 45  2  0
 43 17  1  0
 17 44  2  0
  2 46  1  0
  2 47  1  0
  3 48  1  0
  5 49  1  0
  7 50  1  0
  9 51  1  0
 11 52  1  0
 13 53  1  0
 13 54  1  0
 14 55  1  0
 14 56  1  0
 16 57  1  0
 16 58  1  0
 18 59  1  0
 18 60  1  0
 20 61  1  0
 20 62  1  0
 22 63  1  0
 22 64  1  0
 26 65  1  0
 27 66  1  0
 28 67  1  0
 29 68  1  0
 30 69  1  0
 31 70  1  0
 32 71  1  0
 33 72  1  0
 34 73  1  0
 35 74  1  0
 36 75  1  0
 37 76  1  0
 38 77  1  0
 39 78  1  0
 40 79  1  0
 41 80  1  0
 42 81  1  0
 43 82  1  0
 44 83  1  0
 45 84  1  0
M  END
> <Name>
RCF2009 - Intermediário - (64)

> <Clean Energy>
RCF2009 - Intermediário - (64)

$$$$
RCF2009 - Intermediário - (65)
  SciTegic12132405553D

 84 88  0  0  0  0            999 V2000
    2.4882    2.5022   -1.5000 O   0  0
    1.8846    2.6571   -0.2020 C   0  0
    2.5026    1.6744    0.8272 C   0  0  1  0  0  0
    3.8403    2.1118    1.1527 O   0  0
    4.5186    1.2883    2.1306 C   0  0  2  0  0  0
    4.6645   -0.0903    1.7213 O   0  0
    3.7622    1.3551    3.4831 C   0  0  1  0  0  0
    3.8605    2.7259    3.9441 O   0  0
    2.2816    0.8847    3.3149 C   0  0  1  0  0  0
    1.5890    1.1686    4.5537 O   0  0
    1.5935    1.5735    2.0970 C   0  0  2  0  0  0
    0.2893    1.0084    1.8264 O   0  0
    5.4584   -0.2917    0.5355 C   0  0
    5.3210   -1.7508    0.0625 C   0  0
    3.9052   -2.0999   -0.1170 N   0  0
    1.8470    3.2922   -2.5204 C   0  0
    2.5212    3.0397   -3.8122 C   0  0
    0.1587   -0.2386    1.1063 C   0  0
   -1.2445   -0.6998    1.2566 C   0  0
    0.3485    0.4816    4.8209 C   0  0
   -0.0326    0.7624    6.2267 C   0  0
    4.0822    2.9279    5.3577 C   0  0
    4.1858    4.3782    5.6580 C   0  0
    5.2844    4.9143    6.3760 C   0  0
    3.1533    5.2555    5.2486 C   0  0
    3.2231    6.6315    5.5393 C   0  0
    4.3193    7.1474    6.2534 C   0  0
    5.3482    6.2882    6.6768 C   0  0
    0.0644   -0.2382    7.2239 C   0  0
   -0.2682    0.0461    8.5616 C   0  0
   -0.7108    1.3311    8.9201 C   0  0
   -0.8304    2.3301    7.9384 C   0  0
   -0.4876    2.0508    6.6011 C   0  0
   -1.5549   -1.9726    1.7941 C   0  0
   -2.8936   -2.3606    1.9902 C   0  0
   -3.9380   -1.4812    1.6547 C   0  0
   -3.6466   -0.2257    1.0941 C   0  0
   -2.3094    0.1573    0.8865 C   0  0
    3.7787    2.5959   -6.3062 C   0  0
    2.6597    1.8287   -5.9366 C   0  0
    2.0354    2.0469   -4.6954 C   0  0
    3.6593    3.7916   -4.1860 C   0  0
    4.2808    3.5738   -5.4291 C   0  0
    2.1416    3.6693    0.1103 H   0  0
    0.8401    2.3783   -0.3409 H   0  0
    2.6450    0.6814    0.4010 H   0  0
    5.5376    1.6743    2.1579 H   0  0
    4.2212    0.7439    4.2602 H   0  0
    2.2070   -0.1935    3.1735 H   0  0
    1.3345    2.5931    2.3822 H   0  0
    5.0154    0.3501   -0.2260 H   0  0
    6.4919   -0.1363    0.8453 H   0  0
    5.6834   -2.3900    0.8675 H   0  0
    5.7696   -1.8157   -0.9289 H   0  0
    3.2091   -1.3706   -0.1787 H   0  0
    3.6279   -3.0691   -0.1787 H   0  0
    0.8273    2.9170   -2.6069 H   0  0
    2.0235    4.3359   -2.2600 H   0  0
    0.3197   -0.0108    0.0526 H   0  0
    0.7992   -0.9614    1.6117 H   0  0
   -0.4054    0.9364    4.1783 H   0  0
    0.5589   -0.5851    4.7435 H   0  0
    3.1879    2.5597    5.8604 H   0  0
    5.0532    2.4847    5.5786 H   0  0
    6.0928    4.2598    6.7021 H   0  0
    2.2937    4.8667    4.7027 H   0  0
    2.4264    7.2989    5.2106 H   0  0
    4.3714    8.2126    6.4786 H   0  0
    6.1939    6.6865    7.2372 H   0  0
    0.3995   -1.2408    6.9581 H   0  0
   -0.1829   -0.7305    9.3217 H   0  0
   -0.9608    1.5525    9.9577 H   0  0
   -1.1892    3.3217    8.2143 H   0  0
   -0.5750    2.8367    5.8509 H   0  0
   -0.7536   -2.6621    2.0601 H   0  0
   -3.1218   -3.3435    2.4025 H   0  0
   -4.9737   -1.7728    1.8292 H   0  0
   -4.4567    0.4503    0.8207 H   0  0
   -2.0966    1.1263    0.4349 H   0  0
    4.2566    2.4326   -7.2722 H   0  0
    2.2762    1.0644   -6.6125 H   0  0
    1.1712    1.4438   -4.4168 H   0  0
    4.0613    4.5459   -3.5096 H   0  0
    5.1523    4.1636   -5.7131 H   0  0
  1  2  1  0
  3  2  1  0
  3  4  1  0
  5  4  1  0
  5  6  1  0
  7  5  1  0
  7  8  1  0
  7  9  1  0
  9 10  1  0
  9 11  1  0
 11  3  1  0
 11 12  1  0
  6 13  1  0
 14 15  1  0
  1 16  1  0
 16 17  1  0
 12 18  1  0
 18 19  1  0
 10 20  1  0
 20 21  1  0
  8 22  1  0
 22 23  1  0
 13 14  1  0
 25 26  1  0
 26 27  2  0
 27 28  1  0
 24 28  2  0
 24 23  1  0
 23 25  2  0
 29 30  2  0
 30 31  1  0
 31 32  2  0
 32 33  1  0
 21 29  1  0
 21 33  2  0
 34 35  1  0
 35 36  2  0
 36 37  1  0
 37 38  2  0
 38 19  1  0
 34 19  2  0
 39 40  1  0
 40 41  2  0
 42 43  1  0
 39 43  2  0
 41 17  1  0
 17 42  2  0
  2 44  1  0
  2 45  1  0
  3 46  1  0
  5 47  1  0
  7 48  1  0
  9 49  1  0
 11 50  1  0
 13 51  1  0
 13 52  1  0
 14 53  1  0
 14 54  1  0
 15 55  1  0
 15 56  1  0
 16 57  1  0
 16 58  1  0
 18 59  1  0
 18 60  1  0
 20 61  1  0
 20 62  1  0
 22 63  1  0
 22 64  1  0
 24 65  1  0
 25 66  1  0
 26 67  1  0
 27 68  1  0
 28 69  1  0
 29 70  1  0
 30 71  1  0
 31 72  1  0
 32 73  1  0
 33 74  1  0
 34 75  1  0
 35 76  1  0
 36 77  1  0
 37 78  1  0
 38 79  1  0
 39 80  1  0
 40 81  1  0
 41 82  1  0
 42 83  1  0
 43 84  1  0
M  END
> <Name>
RCF2009 - Intermediário - (65)

> <Clean Energy>
RCF2009 - Intermediário - (65)

$$$$
RCF2009 - Intermediário - (66)
  SciTegic12132405553D

389408  0  0  0  0            999 V2000
    2.1077    0.7157    3.9235 O   0  0
    1.6205    0.8036    2.5723 C   0  0
    0.7638   -0.4376    2.2069 C   0  0  1  0  0  0
   -0.4997   -0.3462    2.9021 O   0  0
   -1.4331   -1.4092    2.5999 C   0  0  2  0  0  0
   -0.9323   -2.7207    2.9333 O   0  0
   -1.8163   -1.3782    1.0973 C   0  0  1  0  0  0
   -2.5352   -0.1384    0.8786 O   0  0
   -0.5423   -1.5066    0.2041 C   0  0  1  0  0  0
   -0.9584   -1.2691   -1.1589 O   0  0
    0.5813   -0.5227    0.6558 C   0  0  2  0  0  0
    1.8286   -0.7401   -0.0478 O   0  0
   -0.6511   -2.9313    4.3294 C   0  0
    0.0273   -4.3019    4.4937 C   0  0
    1.2012   -4.3764    3.6812 N   0  0
    3.0346    1.7673    4.2597 C   0  0
    3.4828    1.5689    5.6553 C   0  0
    2.7061   -1.8270    0.3212 C   0  0
    3.7141   -1.9803   -0.7498 C   0  0
   -0.0686   -1.6571   -2.2216 C   0  0
   -0.7961   -1.4949   -3.5006 C   0  0
   -3.6558   -0.1857   -0.0299 C   0  0
   -4.3068    1.1437   -0.1197 C   0  0
   -5.6937    1.3024    0.1228 C   0  0
   -3.5471    2.2814   -0.4768 C   0  0
   -4.1582    3.5449   -0.5891 C   0  0
   -5.5375    3.6852   -0.3556 C   0  0
   -6.3059    2.5627   -0.0020 C   0  0
   -1.2623   -2.6174   -4.2241 C   0  0
   -1.9620   -2.4513   -5.4345 C   0  0
   -2.2035   -1.1608   -5.9387 C   0  0
   -1.7331   -0.0363   -5.2376 C   0  0
   -1.0438   -0.2017   -4.0208 C   0  0
    3.9319   -3.2205   -1.3947 C   0  0
    4.8544   -3.3211   -2.4527 C   0  0
    5.5588   -2.1846   -2.8866 C   0  0
    5.3766   -0.9566   -2.2280 C   0  0
    4.4687   -0.8562   -1.1596 C   0  0
    4.3661    1.2220    8.3225 C   0  0
    5.1013    0.6673    7.2597 C   0  0
    4.6611    0.8373    5.9344 C   0  0
    2.7415    2.1052    6.7343 C   0  0
    3.1841    1.9377    8.0599 C   0  0
    1.7979   -5.5329    3.2857 C   0  0
    1.3320   -6.6478    3.6239 O   0  0
    3.0026   -5.4971    2.4279 C   0  0
    4.2291   -4.8773    3.1468 C   0  0
    5.4883   -5.0786    2.4037 C   0  0
    5.6521   -4.5674    1.2722 O   0  0
    6.4606   -5.8843    2.9074 O   0  0
    8.4883   -6.5857    4.1600 C   0  0  1  0  0  0
    7.4846   -5.4343    3.8034 C   0  0
    7.7246   -7.8180    4.7587 C   0  0
    9.2318   -7.0321    2.8529 C   0  0
    9.5123   -6.0584    5.2247 C   0  0
    3.0870  -14.4264    6.0114 O   0  0
    2.9905  -14.5409    7.4427 C   0  0
    2.1557  -13.3772    8.0400 C   0  0  1  0  0  0
    0.7654  -13.5901    7.7085 O   0  0
   -0.1440  -12.6114    8.2634 C   0  0  2  0  0  0
    0.1292  -11.2645    7.8239 O   0  0
   -0.1052  -12.6582    9.8132 C   0  0  1  0  0  0
   -0.6248  -13.9546   10.2017 O   0  0
    1.3450  -12.4050   10.3330 C   0  0  1  0  0  0
    1.3332  -12.6621   11.7546 O   0  0
    2.3896  -13.2897    9.5841 C   0  0  2  0  0  0
    3.7553  -12.9528    9.9294 O   0  0
    0.0051  -11.0467    6.4062 C   0  0
    0.4887   -9.6229    6.0826 C   0  0
    1.8260   -9.4334    6.5509 N   0  0
    3.9800  -15.3947    5.4258 C   0  0
    4.0173  -15.1740    3.9636 C   0  0
    4.4003  -11.7961    9.3517 C   0  0
    5.6409  -11.5399   10.1145 C   0  0
    2.4372  -12.1829   12.5440 C   0  0
    2.0976  -12.3940   13.9692 C   0  0
   -1.4598  -13.9968   11.3782 C   0  0
   -1.9408  -15.3781   11.6232 C   0  0
   -3.3219  -15.6634   11.7601 C   0  0
   -1.0143  -16.4386   11.7491 C   0  0
   -1.4570  -17.7504   12.0059 C   0  0
   -2.8299  -18.0166   12.1497 C   0  0
   -3.7625  -16.9719   12.0293 C   0  0
    1.7441  -11.3089   14.8051 C   0  0
    1.4129  -11.5223   16.1568 C   0  0
    1.4325  -12.8229   16.6915 C   0  0
    1.7961  -13.9093   15.8760 C   0  0
    2.1156  -13.6976   14.5209 C   0  0
    5.9118  -10.2773   10.6924 C   0  0
    7.0717  -10.0814   11.4649 C   0  0
    7.9657  -11.1447   11.6798 C   0  0
    7.7242  -12.3922   11.0792 C   0  0
    6.5755  -12.5867   10.2928 C   0  0
    4.1170  -14.7821    1.1617 C   0  0
    5.0578  -14.1507    1.9947 C   0  0
    5.0068  -14.3432    3.3874 C   0  0
    3.0646  -15.7879    3.1169 C   0  0
    3.1181  -15.5976    1.7232 C   0  0
    2.4008   -8.2233    6.7858 C   0  0
    1.7632   -7.1589    6.5988 O   0  0
    3.7898   -8.1404    7.2881 C   0  0
    4.8287   -8.6565    6.2586 C   0  0
    6.2179   -8.3340    6.6387 C   0  0
    6.7247   -8.8145    7.6783 O   0  0
    6.9428   -7.4506    5.9023 O   0  0
   15.0149   -1.7925    9.4993 O   0  0
   15.4920   -2.7090   10.5009 C   0  0
   16.3200   -3.8540    9.8595 C   0  0  1  0  0  0
   17.5910   -3.3182    9.4290 O   0  0
   18.4998   -4.2953    8.8704 C   0  0  2  0  0  0
   17.9752   -4.9611    7.7028 O   0  0
   18.8706   -5.3577    9.9378 C   0  0  1  0  0  0
   19.6129   -4.6643   10.9722 O   0  0
   17.5866   -6.0610   10.4801 C   0  0  1  0  0  0
   17.9957   -6.8800   11.5978 O   0  0
   16.4873   -5.0281   10.8794 C   0  0  2  0  0  0
   15.2298   -5.6581   11.2254 O   0  0
   17.7017   -4.1023    6.5801 C   0  0
   16.9969   -4.9268    5.4897 C   0  0
   15.8148   -5.5367    6.0134 N   0  0
   14.1126   -0.7992   10.0259 C   0  0
   13.6725    0.0711    8.9137 C   0  0
   14.3334   -6.1340   10.1970 C   0  0
   13.3133   -6.9874   10.8433 C   0  0
   17.0890   -7.8936   12.0692 C   0  0
   17.8085   -8.7114   13.0715 C   0  0
   20.7243   -5.3709   11.5625 C   0  0
   21.4016   -4.5212   12.5718 C   0  0
   22.7935   -4.2652   12.5042 C   0  0
   20.6623   -3.9677   13.6424 C   0  0
   21.2982   -3.1794   14.6205 C   0  0
   22.6820   -2.9425   14.5460 C   0  0
   23.4303   -3.4881   13.4887 C   0  0
   18.0781   -8.1870   14.3586 C   0  0
   18.7602   -8.9572   15.3202 C   0  0
   19.2013  -10.2534   15.0000 C   0  0
   18.9379  -10.7875   13.7259 C   0  0
   18.2453  -10.0222   12.7684 C   0  0
   13.0646   -8.3100   10.4069 C   0  0
   12.1310   -9.1191   11.0811 C   0  0
   11.4463   -8.6226   12.2040 C   0  0
   11.6593   -7.2980   12.6224 C   0  0
   12.5783   -6.4813   11.9409 C   0  0
   12.8054    1.7575    6.8117 C   0  0
   12.0498    0.6245    7.1624 C   0  0
   12.4819   -0.2151    8.2052 C   0  0
   14.4340    1.2029    8.5385 C   0  0
   13.9995    2.0446    7.4974 C   0  0
   15.1911   -6.6145    5.4662 C   0  0
   15.6370   -7.1595    4.4276 O   0  0
   13.9800   -7.1792    6.1009 C   0  0
   12.7727   -6.2068    6.0537 C   0  0
   11.5033   -6.8537    6.4390 C   0  0
   11.3402   -7.3042    7.5961 O   0  0
   10.5191   -7.0350    5.5188 O   0  0
   13.7438  -10.8396   -2.7945 O   0  0
   13.8502   -9.8964   -3.8761 C   0  0
   14.7139   -8.6739   -3.4666 C   0  0  1  0  0  0
   16.0965   -9.0883   -3.3998 O   0  0
   17.0306   -8.0268   -3.0939 C   0  0  2  0  0  0
   16.7812   -7.3964   -1.8201 O   0  0
   17.0042   -6.9486   -4.2085 C   0  0  1  0  0  0
   17.5005   -7.5854   -5.4126 O   0  0
   15.5641   -6.3701   -4.3774 C   0  0  1  0  0  0
   15.5828   -5.5314   -5.5536 O   0  0
   14.4951   -7.5022   -4.4794 C   0  0  2  0  0  0
   13.1397   -6.9918   -4.4672 O   0  0
   16.8975   -8.2624   -0.6759 C   0  0
   16.4404   -7.4911    0.5738 C   0  0
   15.1113   -6.9962    0.3943 N   0  0
   12.8261  -11.9162   -3.0716 C   0  0
   12.7807  -12.8087   -1.8929 C   0  0
   12.5135   -6.5855   -3.2301 C   0  0
   11.2850   -5.8351   -3.5682 C   0  0
   14.4957   -4.6091   -5.7518 C   0  0
   14.8433   -3.7425   -6.9004 C   0  0
   18.3446   -6.7892   -6.2710 C   0  0
   18.7993   -7.5871   -7.4355 C   0  0
   20.1754   -7.7164   -7.7473 C   0  0
   17.8524   -8.2178   -8.2749 C   0  0
   18.2703   -8.9579   -9.3975 C   0  0
   19.6387   -9.0688   -9.7003 C   0  0
   20.5914   -8.4454   -8.8761 C   0  0
   14.8033   -4.2564   -8.2189 C   0  0
   15.1301   -3.4400   -9.3188 C   0  0
   15.5230   -2.1056   -9.1129 C   0  0
   15.5646   -1.5817   -7.8085 C   0  0
   15.2262   -2.3942   -6.7096 C   0  0
   11.0451   -4.5349   -3.0648 C   0  0
    9.8961   -3.8211   -3.4535 C   0  0
    8.9824   -4.3907   -4.3573 C   0  0
    9.1931   -5.6959   -4.8338 C   0  0
   10.3307   -6.4185   -4.4343 C   0  0
   12.6648  -14.5401    0.3439 C   0  0
   11.7443  -13.4838    0.2229 C   0  0
   11.8034  -12.6217   -0.8872 C   0  0
   13.7132  -13.8630   -1.7499 C   0  0
   13.6516  -14.7273   -0.6407 C   0  0
   14.5635   -5.9720    1.1021 C   0  0
   15.2211   -5.3765    1.9894 O   0  0
   13.1808   -5.5260    0.8230 C   0  0
   12.1228   -6.6021    1.1807 C   0  0
   10.7438   -6.0764    1.1584 C   0  0
   10.2363   -5.6566    0.0932 O   0  0
   10.0308   -5.9728    2.3113 O   0  0
    0.9651    1.6745    2.5634 H   0  0
    2.5135    0.7871    1.9475 H   0  0
    1.2024   -1.3662    2.5721 H   0  0
   -2.2635   -1.2373    3.2847 H   0  0
   -2.5057   -2.1722    0.8103 H   0  0
   -0.1206   -2.5116    0.2176 H   0  0
    0.3086    0.4719    0.3029 H   0  0
    0.0699   -2.1622    4.6065 H   0  0
   -1.6211   -2.9729    4.8248 H   0  0
   -0.6474   -5.0589    4.0938 H   0  0
    0.3837   -4.3774    5.5210 H   0  0
    1.6512   -3.5327    3.3560 H   0  0
    3.9036    1.6329    3.6156 H   0  0
    2.4713    2.6999    4.2274 H   0  0
    3.2315   -1.5137    1.2234 H   0  0
    2.0981   -2.7317    0.3310 H   0  0
    0.7542   -0.9422   -2.2173 H   0  0
    0.1323   -2.7201   -2.0891 H   0  0
   -3.2386   -0.4043   -1.0129 H   0  0
   -4.3796   -0.8663    0.4186 H   0  0
   -6.2986    0.4422    0.4097 H   0  0
   -2.4784    2.1833   -0.6675 H   0  0
   -3.5620    4.4170   -0.8577 H   0  0
   -6.0104    4.6628   -0.4485 H   0  0
   -7.3760    2.6694    0.1753 H   0  0
   -1.0801   -3.6227   -3.8444 H   0  0
   -2.3177   -3.3238   -5.9824 H   0  0
   -2.7539   -1.0326   -6.8707 H   0  0
   -1.9028    0.9635   -5.6373 H   0  0
   -0.6993    0.6781   -3.4774 H   0  0
    3.3840   -4.1064   -1.0735 H   0  0
    5.0240   -4.2825   -2.9377 H   0  0
    6.2442   -2.2554   -3.7312 H   0  0
    5.9408   -0.0800   -2.5465 H   0  0
    4.3492    0.0981   -0.6465 H   0  0
    4.7120    1.0973    9.3486 H   0  0
    6.0128    0.1053    7.4633 H   0  0
    5.2366    0.3996    5.1187 H   0  0
    1.8192    2.6535    6.5422 H   0  0
    2.6110    2.3626    8.8840 H   0  0
    3.2441   -6.5415    2.2301 H   0  0
    2.7470   -4.8313    1.6036 H   0  0
    4.0772   -3.7980    3.1625 H   0  0
    4.3598   -5.4229    4.0814 H   0  0
    6.9525   -5.1592    4.7141 H   0  0
    8.0297   -4.6764    3.2407 H   0  0
    6.9945   -8.1508    4.0211 H   0  0
    8.4665   -8.5169    5.1451 H   0  0
    9.9486   -7.8075    3.1230 H   0  0
    8.4791   -7.2277    2.0891 H   0  0
   10.0577   -5.2252    4.7816 H   0  0
    8.9780   -5.9217    6.1649 H   0  0
    2.4424  -15.4669    7.6166 H   0  0
    4.0133  -14.4367    7.8049 H   0  0
    2.3950  -12.4176    7.5819 H   0  0
   -1.1089  -12.8654    7.8246 H   0  0
   -0.7606  -11.9257   10.2845 H   0  0
    1.6557  -11.3665   10.2191 H   0  0
    2.3119  -14.3003    9.9849 H   0  0
    0.6911  -11.7514    5.9362 H   0  0
   -1.0620  -11.0983    6.1900 H   0  0
   -0.1189   -8.9246    6.6583 H   0  0
    0.5478   -9.5283    4.9984 H   0  0
    2.4206  -10.2293    6.7329 H   0  0
    4.9743  -15.1750    5.8145 H   0  0
    3.5320  -16.3735    5.5968 H   0  0
    4.6900  -12.0721    8.3378 H   0  0
    3.7334  -10.9498    9.5166 H   0  0
    3.2894  -12.8211   12.3101 H   0  0
    2.4990  -11.1078   12.3754 H   0  0
   -0.8153  -13.7297   12.2156 H   0  0
   -2.3354  -13.3895   11.1490 H   0  0
   -4.0562  -14.8646   11.6568 H   0  0
    0.0530  -16.2428   11.6470 H   0  0
   -0.7348  -18.5620   12.0938 H   0  0
   -3.1709  -19.0315   12.3541 H   0  0
   -4.8269  -17.1764   12.1446 H   0  0
    1.7267  -10.2961   14.4028 H   0  0
    1.1407  -10.6785   16.7908 H   0  0
    1.1664  -12.9885   17.7354 H   0  0
    1.8304  -14.9152   16.2943 H   0  0
    2.3790  -14.5496   13.8942 H   0  0
    5.2206   -9.4482   10.5410 H   0  0
    7.2783   -9.1028   11.8983 H   0  0
    8.8435  -11.0024   12.3101 H   0  0
    8.4294  -13.2106   11.2237 H   0  0
    6.4087  -13.5540    9.8189 H   0  0
    4.1620  -14.6395    0.0820 H   0  0
    5.8269  -13.5118    1.5607 H   0  0
    5.7385  -13.8456    4.0239 H   0  0
    2.2808  -16.4143    3.5428 H   0  0
    2.3853  -16.0823    1.0782 H   0  0
    3.9809   -7.0762    7.4265 H   0  0
    3.8258   -8.8163    8.1424 H   0  0
    4.7755   -9.7452    6.2710 H   0  0
    4.6541   -8.1129    5.3301 H   0  0
   16.1650   -2.1213   11.1253 H   0  0
   14.5936   -3.1497   10.9328 H   0  0
   15.8656   -4.2313    8.9434 H   0  0
   19.3395   -3.7019    8.5084 H   0  0
   19.5411   -6.1313    9.5635 H   0  0
   17.1445   -6.7437    9.7545 H   0  0
   16.7773   -4.5926   11.8356 H   0  0
   16.9991   -3.3526    6.9438 H   0  0
   18.6749   -3.7964    6.1962 H   0  0
   17.6525   -5.7551    5.2207 H   0  0
   16.6479   -4.2364    4.7218 H   0  0
   15.3793   -5.1718    6.8485 H   0  0
   13.2355   -1.3364   10.3866 H   0  0
   14.6946   -0.1833   10.7115 H   0  0
   13.8223   -5.2586    9.7964 H   0  0
   14.9228   -6.7705    9.5370 H   0  0
   16.2810   -7.3750   12.5853 H   0  0
   16.8675   -8.5361   11.2170 H   0  0
   20.2942   -6.2189   12.0956 H   0  0
   21.4379   -5.5393   10.7560 H   0  0
   23.3831   -4.6722   11.6828 H   0  0
   19.5902   -4.1509   13.7145 H   0  0
   20.7176   -2.7512   15.4376 H   0  0
   23.1740   -2.3368   15.3070 H   0  0
   24.5039   -3.3085   13.4322 H   0  0
   17.7564   -7.1769   14.6125 H   0  0
   18.9468   -8.5495   16.3137 H   0  0
   19.7461  -10.8428   15.7375 H   0  0
   19.2709  -11.7959   13.4803 H   0  0
   18.0459  -10.4477   11.7849 H   0  0
   13.5969   -8.7091    9.5436 H   0  0
   11.9377  -10.1335   10.7324 H   0  0
   10.7524   -9.2629   12.7486 H   0  0
   11.1105   -6.9031   13.4773 H   0  0
   12.7218   -5.4506   12.2653 H   0  0
   12.4659    2.4126    6.0094 H   0  0
   11.1288    0.3970    6.6257 H   0  0
   11.8906   -1.0929    8.4658 H   0  0
   15.3656    1.4289    9.0573 H   0  0
   14.5883    2.9195    7.2217 H   0  0
   13.7155   -8.0444    5.4930 H   0  0
   14.2420   -7.3104    7.1507 H   0  0
   12.9468   -5.4459    6.8145 H   0  0
   12.6390   -5.9154    5.0119 H   0  0
   14.3807  -10.4290   -4.6654 H   0  0
   12.8330   -9.5433   -4.0454 H   0  0
   14.4903   -8.3277   -2.4575 H   0  0
   17.9863   -8.5380   -2.9780 H   0  0
   17.6785   -6.1135   -4.0185 H   0  0
   15.2737   -5.7208   -3.5514 H   0  0
   14.5555   -7.9216   -5.4836 H   0  0
   16.1932   -9.0766   -0.8468 H   0  0
   17.9614   -8.4751   -0.5713 H   0  0
   17.0671   -6.6042    0.6670 H   0  0
   16.3739   -8.2005    1.3987 H   0  0
   14.5021   -7.4088   -0.2976 H   0  0
   11.8398  -11.4642   -3.1768 H   0  0
   13.2554  -12.4857   -3.8959 H   0  0
   12.2094   -7.4983   -2.7177 H   0  0
   13.1989   -5.8907   -2.7448 H   0  0
   13.6287   -5.2044   -6.0382 H   0  0
   14.4546   -3.9786   -4.8636 H   0  0
   17.7129   -5.9899   -6.6585 H   0  0
   19.2305   -6.5477   -5.6837 H   0  0
   20.9250   -7.2481   -7.1094 H   0  0
   16.7884   -8.1324   -8.0542 H   0  0
   17.5324   -9.4464  -10.0339 H   0  0
   19.9606   -9.6373  -10.5728 H   0  0
   21.6524   -8.5273   -9.1122 H   0  0
   14.5172   -5.2942   -8.3895 H   0  0
   15.0789   -3.8415  -10.3309 H   0  0
   15.7946   -1.4789   -9.9623 H   0  0
   15.8595   -0.5445   -7.6489 H   0  0
   15.2608   -1.9762   -5.7035 H   0  0
   11.7517   -4.0790   -2.3713 H   0  0
    9.7133   -2.8239   -3.0533 H   0  0
    8.1132   -3.8220   -4.6876 H   0  0
    8.4726   -6.1489   -5.5147 H   0  0
   10.4736   -7.4361   -4.7978 H   0  0
   12.6134  -15.2130    1.1998 H   0  0
   10.9847  -13.3332    0.9901 H   0  0
   11.0876  -11.8037   -0.9686 H   0  0
   14.4877  -14.0109   -2.5026 H   0  0
   14.3688  -15.5424   -0.5441 H   0  0
   13.0129   -4.6806    1.4902 H   0  0
   13.1384   -5.3848   -0.2570 H   0  0
   12.1537   -7.3537    0.3918 H   0  0
   12.3005   -6.8915    2.2164 H   0  0
  1  2  1  0
  3  2  1  0
  3  4  1  0
  5  4  1  0
  5  6  1  0
  7  5  1  0
  7  8  1  0
  7  9  1  0
  9 10  1  0
  9 11  1  0
 11  3  1  0
 11 12  1  0
  6 13  1  0
 14 15  1  0
  1 16  1  0
 16 17  1  0
 12 18  1  0
 18 19  1  0
 10 20  1  0
 20 21  1  0
  8 22  1  0
 22 23  1  0
 13 14  1  0
 25 26  1  0
 26 27  2  0
 27 28  1  0
 24 28  2  0
 24 23  1  0
 23 25  2  0
 29 30  2  0
 30 31  1  0
 31 32  2  0
 32 33  1  0
 21 29  1  0
 21 33  2  0
 34 35  1  0
 35 36  2  0
 36 37  1  0
 37 38  2  0
 38 19  1  0
 34 19  2  0
 39 40  1  0
 40 41  2  0
 42 43  1  0
 39 43  2  0
 41 17  1  0
 17 42  2  0
 15 44  1  0
 44 45  2  0
 44 46  1  0
 46 47  1  0
 47 48  1  0
 48 49  2  0
 48 50  1  0
 51 52  1  0
 51 53  1  0
 51 54  1  0
 51 55  1  0
 56 57  1  0
 58 57  1  0
 58 59  1  0
 60 59  1  0
 60 61  1  0
 62 60  1  0
 62 63  1  0
 62 64  1  0
 64 65  1  0
 64 66  1  0
 66 58  1  0
 66 67  1  0
 61 68  1  0
 69 70  1  0
 56 71  1  0
 71 72  1  0
 67 73  1  0
 73 74  1  0
 65 75  1  0
 75 76  1  0
 63 77  1  0
 77 78  1  0
 68 69  1  0
 80 81  1  0
 81 82  2  0
 82 83  1  0
 79 83  2  0
 79 78  1  0
 78 80  2  0
 84 85  2  0
 85 86  1  0
 86 87  2  0
 87 88  1  0
 76 84  1  0
 76 88  2  0
 89 90  1  0
 90 91  2  0
 91 92  1  0
 92 93  2  0
 93 74  1  0
 89 74  2  0
 94 95  1  0
 95 96  2  0
 97 98  1  0
 94 98  2  0
 96 72  1  0
 72 97  2  0
 70 99  1  0
 99100  2  0
 99101  1  0
101102  1  0
102103  1  0
103104  2  0
103105  1  0
106107  1  0
108107  1  0
108109  1  0
110109  1  0
110111  1  0
112110  1  0
112113  1  0
112114  1  0
114115  1  0
114116  1  0
116108  1  0
116117  1  0
111118  1  0
119120  1  0
106121  1  0
121122  1  0
117123  1  0
123124  1  0
115125  1  0
125126  1  0
113127  1  0
127128  1  0
118119  1  0
130131  1  0
131132  2  0
132133  1  0
129133  2  0
129128  1  0
128130  2  0
134135  2  0
135136  1  0
136137  2  0
137138  1  0
126134  1  0
126138  2  0
139140  1  0
140141  2  0
141142  1  0
142143  2  0
143124  1  0
139124  2  0
144145  1  0
145146  2  0
147148  1  0
144148  2  0
146122  1  0
122147  2  0
120149  1  0
149150  2  0
149151  1  0
151152  1  0
152153  1  0
153154  2  0
153155  1  0
156157  1  0
158157  1  0
158159  1  0
160159  1  0
160161  1  0
162160  1  0
162163  1  0
162164  1  0
164165  1  0
164166  1  0
166158  1  0
166167  1  0
161168  1  0
169170  1  0
156171  1  0
171172  1  0
167173  1  0
173174  1  0
165175  1  0
175176  1  0
163177  1  0
177178  1  0
168169  1  0
180181  1  0
181182  2  0
182183  1  0
179183  2  0
179178  1  0
178180  2  0
184185  2  0
185186  1  0
186187  2  0
187188  1  0
176184  1  0
176188  2  0
189190  1  0
190191  2  0
191192  1  0
192193  2  0
193174  1  0
189174  2  0
194195  1  0
195196  2  0
197198  1  0
194198  2  0
196172  1  0
172197  2  0
170199  1  0
199200  2  0
199201  1  0
201202  1  0
202203  1  0
203204  2  0
203205  1  0
205 54  1  0
155 55  1  0
 50 52  1  0
105 53  1  0
  2206  1  0
  2207  1  0
  3208  1  0
  5209  1  0
  7210  1  0
  9211  1  0
 11212  1  0
 13213  1  0
 13214  1  0
 14215  1  0
 14216  1  0
 15217  1  0
 16218  1  0
 16219  1  0
 18220  1  0
 18221  1  0
 20222  1  0
 20223  1  0
 22224  1  0
 22225  1  0
 24226  1  0
 25227  1  0
 26228  1  0
 27229  1  0
 28230  1  0
 29231  1  0
 30232  1  0
 31233  1  0
 32234  1  0
 33235  1  0
 34236  1  0
 35237  1  0
 36238  1  0
 37239  1  0
 38240  1  0
 39241  1  0
 40242  1  0
 41243  1  0
 42244  1  0
 43245  1  0
 46246  1  0
 46247  1  0
 47248  1  0
 47249  1  0
 52250  1  0
 52251  1  0
 53252  1  0
 53253  1  0
 54254  1  0
 54255  1  0
 55256  1  0
 55257  1  0
 57258  1  0
 57259  1  0
 58260  1  0
 60261  1  0
 62262  1  0
 64263  1  0
 66264  1  0
 68265  1  0
 68266  1  0
 69267  1  0
 69268  1  0
 70269  1  0
 71270  1  0
 71271  1  0
 73272  1  0
 73273  1  0
 75274  1  0
 75275  1  0
 77276  1  0
 77277  1  0
 79278  1  0
 80279  1  0
 81280  1  0
 82281  1  0
 83282  1  0
 84283  1  0
 85284  1  0
 86285  1  0
 87286  1  0
 88287  1  0
 89288  1  0
 90289  1  0
 91290  1  0
 92291  1  0
 93292  1  0
 94293  1  0
 95294  1  0
 96295  1  0
 97296  1  0
 98297  1  0
101298  1  0
101299  1  0
102300  1  0
102301  1  0
107302  1  0
107303  1  0
108304  1  0
110305  1  0
112306  1  0
114307  1  0
116308  1  0
118309  1  0
118310  1  0
119311  1  0
119312  1  0
120313  1  0
121314  1  0
121315  1  0
123316  1  0
123317  1  0
125318  1  0
125319  1  0
127320  1  0
127321  1  0
129322  1  0
130323  1  0
131324  1  0
132325  1  0
133326  1  0
134327  1  0
135328  1  0
136329  1  0
137330  1  0
138331  1  0
139332  1  0
140333  1  0
141334  1  0
142335  1  0
143336  1  0
144337  1  0
145338  1  0
146339  1  0
147340  1  0
148341  1  0
151342  1  0
151343  1  0
152344  1  0
152345  1  0
157346  1  0
157347  1  0
158348  1  0
160349  1  0
162350  1  0
164351  1  0
166352  1  0
168353  1  0
168354  1  0
169355  1  0
169356  1  0
170357  1  0
171358  1  0
171359  1  0
173360  1  0
173361  1  0
175362  1  0
175363  1  0
177364  1  0
177365  1  0
179366  1  0
180367  1  0
181368  1  0
182369  1  0
183370  1  0
184371  1  0
185372  1  0
186373  1  0
187374  1  0
188375  1  0
189376  1  0
190377  1  0
191378  1  0
192379  1  0
193380  1  0
194381  1  0
195382  1  0
196383  1  0
197384  1  0
198385  1  0
201386  1  0
201387  1  0
202388  1  0
202389  1  0
M  END
> <Name>
RCF2009 - Intermediário - (66)

> <Clean Energy>
RCF2009 - Intermediário - (66)

$$$$
RCF2009 - Intermediário - (68)
  SciTegic12132405553D

 24 24  0  0  0  0            999 V2000
    3.7500   -0.2516    0.0000 C   0  0
    2.4163   -1.0216    0.0000 C   0  0
    2.4163   -2.5617    0.0000 C   0  0
    3.7500   -3.3317    0.0000 C   0  0
    5.0837   -2.5617    0.0000 C   0  0
    5.0837   -1.0216    0.0000 C   0  0
    3.7500    1.2884    0.0000 O   0  0
    6.4173   -0.2516    0.0000 O   0  0
    7.7510   -1.0216    0.0000 C   0  0
    3.7500   -4.8717    0.0000 C   0  0
    2.4163   -5.6417    0.0000 C   0  0
    2.4163   -7.1817    0.0000 C   0  0
    3.7500   -7.9517    0.0000 O   0  0
    1.0826   -7.9517    0.0000 O   0  0
    1.0826   -0.2517    0.0000 H   0  0
    1.0826   -3.3317    0.0000 H   0  0
    6.4174   -3.3317    0.0000 H   0  0
    5.0837    2.0584    0.0000 H   0  0
    6.9810   -2.3553    0.0000 H   0  0
    9.0847   -1.7916    0.0000 H   0  0
    8.5210    0.3120    0.0000 H   0  0
    5.0837   -5.6417    0.0000 H   0  0
    1.0826   -4.8717    0.0000 H   0  0
   -0.2510   -7.1817    0.0000 H   0  0
  1  2  1  0
  2  3  2  0
  3  4  1  0
  4  5  2  0
  5  6  1  0
  1  6  2  0
  1  7  1  0
  6  8  1  0
  8  9  1  0
  4 10  1  0
 11 12  1  0
 12 14  1  0
 12 13  2  0
 10 11  2  0
  2 15  1  0
  3 16  1  0
  5 17  1  0
  7 18  1  0
  9 19  1  0
  9 20  1  0
  9 21  1  0
 10 22  1  0
 11 23  1  0
 14 24  1  0
M  END
> <Name>
RCF2009 - Intermediário - (68)

> <Clean Energy>
RCF2009 - Intermediário - (68)

$$$$
RCF2009 - Intermediário - (69)
  SciTegic12132405553D

 26 26  0  0  0  0            999 V2000
    3.7500   -0.2516    0.0000 C   0  0
    2.4163   -1.0216    0.0000 C   0  0
    2.4163   -2.5617    0.0000 C   0  0
    3.7500   -3.3317    0.0000 C   0  0
    5.0837   -2.5617    0.0000 C   0  0
    5.0837   -1.0216    0.0000 C   0  0
    3.7500    1.2884    0.0000 O   0  0
    6.4173   -0.2516    0.0000 O   0  0
    7.7510   -1.0216    0.0000 C   0  0
    3.7500   -4.8717    0.0000 C   0  0
    2.4163   -5.6417    0.0000 C   0  0
    2.4163   -7.1817    0.0000 C   0  0
    3.7500   -7.9517    0.0000 O   0  0
    1.0826   -7.9517    0.0000 O   0  0
    1.0826   -0.2517    0.0000 H   0  0
    1.0826   -3.3317    0.0000 H   0  0
    6.4174   -3.3317    0.0000 H   0  0
    5.0837    2.0584    0.0000 H   0  0
    6.9810   -2.3553    0.0000 H   0  0
    9.0847   -1.7916    0.0000 H   0  0
    8.5210    0.3120    0.0000 H   0  0
    5.2891   -4.9254    0.0000 H   0  0
    4.5661   -6.1777    0.0000 H   0  0
    0.8773   -5.5880    0.0000 H   0  0
    1.6002   -4.3357    0.0000 H   0  0
   -0.2510   -7.1817    0.0000 H   0  0
  1  2  1  0
  2  3  2  0
  3  4  1  0
  4  5  2  0
  5  6  1  0
  1  6  2  0
  1  7  1  0
  6  8  1  0
  8  9  1  0
  4 10  1  0
 11 12  1  0
 12 14  1  0
 12 13  2  0
 10 11  1  0
  2 15  1  0
  3 16  1  0
  5 17  1  0
  7 18  1  0
  9 19  1  0
  9 20  1  0
  9 21  1  0
 10 22  1  0
 10 23  1  0
 11 24  1  0
 11 25  1  0
 14 26  1  0
M  END
> <Name>
RCF2009 - Intermediário - (69)

> <Clean Energy>
RCF2009 - Intermediário - (69)

$$$$
RCF2009 - Intermediário - (70)
  SciTegic12132405553D

 27 27  0  0  0  0            999 V2000
    3.7500   -0.2516    0.0000 C   0  0
    2.4163   -1.0216    0.0000 C   0  0
    2.4163   -2.5617    0.0000 C   0  0
    3.7500   -3.3317    0.0000 C   0  0
    5.0837   -2.5617    0.0000 C   0  0
    5.0837   -1.0216    0.0000 C   0  0
    3.7500    1.2884    0.0000 O   0  0
    6.4173   -0.2516    0.0000 O   0  0
    7.7510   -1.0216    0.0000 C   0  0
    3.7500   -4.8717    0.0000 C   0  0
    2.4163   -5.6417    0.0000 C   0  0
    2.4163   -7.1817    0.0000 C   0  0
    1.0826   -7.9517    0.0000 O   0  0
    1.0826   -0.2517    0.0000 H   0  0
    1.0826   -3.3317    0.0000 H   0  0
    6.4174   -3.3317    0.0000 H   0  0
    5.0837    2.0584    0.0000 H   0  0
    6.9810   -2.3553    0.0000 H   0  0
    9.0847   -1.7916    0.0000 H   0  0
    8.5210    0.3120    0.0000 H   0  0
    5.2891   -4.9254    0.0000 H   0  0
    4.5661   -6.1777    0.0000 H   0  0
    0.8773   -5.5880    0.0000 H   0  0
    1.6002   -4.3357    0.0000 H   0  0
    3.9554   -7.2354    0.0000 H   0  0
    3.2324   -8.4877    0.0000 H   0  0
   -0.2510   -7.1817    0.0000 H   0  0
  1  2  1  0
  2  3  2  0
  3  4  1  0
  4  5  2  0
  5  6  1  0
  1  6  2  0
  1  7  1  0
  6  8  1  0
  8  9  1  0
  4 10  1  0
 11 12  1  0
 12 13  1  0
 10 11  1  0
  2 14  1  0
  3 15  1  0
  5 16  1  0
  7 17  1  0
  9 18  1  0
  9 19  1  0
  9 20  1  0
 10 21  1  0
 10 22  1  0
 11 23  1  0
 11 24  1  0
 12 25  1  0
 12 26  1  0
 13 27  1  0
M  END
> <Name>
RCF2009 - Intermediário - (70)

> <Clean Energy>
RCF2009 - Intermediário - (70)

$$$$
RCF2009 - Intermediário - (73)
  SciTegic12132405553D

 43 43  0  0  0  0            999 V2000
    1.5427   -6.0004   -3.8414 O   0  0
    2.5092   -5.6766   -2.8350 C   0  0
    2.6718   -6.8742   -1.8687 C   0  0  1  0  0  0
    3.9661   -6.7426   -1.2366 O   0  0
    4.3339   -7.8531   -0.3981 C   0  0  1  0  0  0
    6.0820   -7.4552    0.3139 Br  0  0
    3.2919   -8.0587    0.7342 C   0  0  2  0  0  0
    3.6183   -9.2550    1.4620 O   0  0
    1.8519   -8.1832    0.1488 C   0  0  1  0  0  0
    0.9586   -8.4625    1.2430 O   0  0
    1.5538   -6.9560   -0.7758 C   0  0  2  0  0  0
    0.2111   -6.8811   -1.3009 O   0  0
    3.9820   -9.3965    2.7710 C   0  0
    4.2750   -8.2661    3.6725 C   0  0
    4.0955  -10.5705    3.1900 O   0  0
   -0.1312   -7.8384    1.7742 C   0  0
   -0.8321   -8.5197    2.8710 C   0  0
   -0.5483   -6.7273    1.3744 O   0  0
   -0.5000   -7.7098   -2.1210 C   0  0
   -0.0100   -8.7766   -2.5552 O   0  0
   -1.8752   -7.3397   -2.5060 C   0  0
    1.1559   -5.2137   -4.8847 C   0  0
    0.1541   -5.7411   -5.8215 C   0  0
    1.6323   -4.0661   -5.0479 O   0  0
    3.4498   -5.5429   -3.3692 H   0  0
    2.0775   -4.8467   -2.2754 H   0  0
    2.6617   -7.8054   -2.4350 H   0  0
    4.1143   -8.6982   -1.0506 H   0  0
    3.3440   -7.2445    1.4571 H   0  0
    1.6490   -9.0588   -0.4678 H   0  0
    1.4911   -6.0426   -0.1843 H   0  0
    4.1896   -8.5956    4.7080 H   0  0
    5.2875   -7.9071    3.4878 H   0  0
    3.5645   -7.4604    3.4878 H   0  0
   -0.7488   -9.5987    2.7407 H   0  0
   -0.3838   -8.2329    3.8222 H   0  0
   -1.8837   -8.2329    2.8638 H   0  0
   -2.4729   -7.1788   -1.6087 H   0  0
   -1.8532   -6.4239   -3.0968 H   0  0
   -2.3158   -8.1428   -3.0968 H   0  0
   -0.6734   -6.1766   -5.2614 H   0  0
   -0.2183   -4.9313   -6.4490 H   0  0
    0.6108   -6.5064   -6.4490 H   0  0
  1  2  1  0
  3  2  1  0
  3  4  1  0
  4  5  1  0
  5  6  1  0
  5  7  1  0
  7  8  1  0
  7  9  1  0
  9 10  1  0
  9 11  1  0
  3 11  1  0
 11 12  1  0
  8 13  1  0
 13 14  1  0
 10 16  1  0
 16 17  1  0
 12 19  1  0
 19 21  1  0
  1 22  1  0
 22 23  1  0
 22 24  2  0
 19 20  2  0
 16 18  2  0
 13 15  2  0
  2 25  1  0
  2 26  1  0
  3 27  1  0
  5 28  1  0
  7 29  1  0
  9 30  1  0
 11 31  1  0
 14 32  1  0
 14 33  1  0
 14 34  1  0
 17 35  1  0
 17 36  1  0
 17 37  1  0
 21 38  1  0
 21 39  1  0
 21 40  1  0
 23 41  1  0
 23 42  1  0
 23 43  1  0
M  END
> <Name>
RCF2009 - Intermediário - (73)

> <Clean Energy>
RCF2009 - Intermediário - (73)

$$$$
RCF2009 - Intermediário - (74)
  SciTegic12132405553D

 69 70  0  0  0  0            999 V2000
    6.9042    4.0932    2.8018 C   0  0
    7.0986    3.5052    1.5383 C   0  0
    7.3774    2.1331    1.4283 C   0  0
    7.5005    1.3245    2.5818 C   0  0
    7.3402    1.9321    3.8493 C   0  0
    7.0401    3.3049    3.9664 C   0  0
    6.5587    5.4165    2.8432 O   0  0
    6.8360    3.8499    5.2049 O   0  0
    8.0515    4.3033    5.8224 C   0  0
    7.7531   -0.1379    2.4522 C   0  0
    9.1253   -0.4757    1.8077 C   0  0
    9.3260   -1.9919    1.5906 C   0  0
   10.5620   -2.2351    0.9270 O   0  0
    5.0662    7.5244   -1.6788 O   0  0
    4.0342    7.8803   -0.7490 C   0  0
    3.6622    6.6750    0.1608 C   0  0  1  0  0  0
    4.5700    6.6363    1.2916 O   0  0
    4.3660    5.5080    2.1771 C   0  0  1  0  0  0
    5.3075    5.5397    3.2658 O   0  0
    2.9383    5.4915    2.7765 C   0  0  2  0  0  0
    2.8010    4.2895    3.5605 O   0  0
    1.9007    5.5263    1.6213 C   0  0  1  0  0  0
    0.5718    5.6002    2.1678 O   0  0
    2.1854    6.7219    0.6626 C   0  0  1  0  0  0
    1.9841    7.9558    1.3709 O   0  0
    6.3465    7.9915   -1.7430 C   0  0
    7.1884    7.5421   -2.8606 C   0  0
    6.8161    8.7534   -0.8657 O   0  0
    1.1290    8.9733    1.0715 C   0  0
    0.3609    8.9261    0.0817 O   0  0
    1.1117   10.1552    1.9388 C   0  0
   -0.5744    5.1302    1.5865 C   0  0
   -0.5511    4.5625    0.4706 O   0  0
   -1.8681    5.2766    2.2648 C   0  0
    2.4900    4.1549    4.8852 C   0  0
    1.6676    5.1271    5.6263 C   0  0
    2.8577    3.1033    5.4573 O   0  0
    7.0329    4.1169    0.6385 H   0  0
    7.4992    1.6918    0.4391 H   0  0
    7.4500    1.3314    4.7522 H   0  0
    7.9450    4.2636    6.9065 H   0  0
    8.8768    3.6613    5.5146 H   0  0
    8.2548    5.3290    5.5146 H   0  0
    7.7875   -0.5119    3.4755 H   0  0
    6.9874   -0.4986    1.7655 H   0  0
    9.8830   -0.1733    2.5304 H   0  0
    9.1117   -0.0296    0.8133 H   0  0
    9.4303   -2.4616    2.5687 H   0  0
    8.5581   -2.3381    0.8989 H   0  0
   11.2538   -2.3712    1.5786 H   0  0
    4.4772    8.6512   -0.1184 H   0  0
    3.1669    8.1134   -1.3668 H   0  0
    3.8127    5.7475   -0.3917 H   0  0
    4.5819    4.6335    1.5632 H   0  0
    2.7577    6.3132    3.4696 H   0  0
    1.9059    4.5923    1.0593 H   0  0
    1.4793    6.7280   -0.1678 H   0  0
    7.2075    6.4526   -2.8859 H   0  0
    6.7802    7.9202   -3.7978 H   0  0
    8.2019    7.9202   -2.7269 H   0  0
    1.1163    9.8402    2.9823 H   0  0
    1.9928   10.7651    1.7395 H   0  0
    0.2130   10.7390    1.7395 H   0  0
   -1.7165    5.2595    3.3440 H   0  0
   -2.3240    6.2239    1.9769 H   0  0
   -2.5243    4.4553    1.9769 H   0  0
    1.7987    4.9722    6.6973 H   0  0
    1.9774    6.1390    5.3650 H   0  0
    0.6184    4.9894    5.3650 H   0  0
  1  2  1  0
  2  3  2  0
  3  4  1  0
  4  5  2  0
  5  6  1  0
  1  6  2  0
  1  7  1  0
  6  8  1  0
  8  9  1  0
  4 10  1  0
 11 12  1  0
 12 13  1  0
 10 11  1  0
 14 15  1  0
 16 15  1  0
 16 17  1  0
 17 18  1  0
 18 19  1  0
 18 20  1  0
 20 21  1  0
 20 22  1  0
 22 23  1  0
 22 24  1  0
 16 24  1  0
 24 25  1  0
 19  7  1  0
 14 26  1  0
 26 27  1  0
 25 29  1  0
 29 31  1  0
 23 32  1  0
 32 34  1  0
 21 35  1  0
 35 36  1  0
 26 28  2  0
 29 30  2  0
 32 33  2  0
 35 37  2  0
  2 38  1  0
  3 39  1  0
  5 40  1  0
  9 41  1  0
  9 42  1  0
  9 43  1  0
 10 44  1  0
 10 45  1  0
 11 46  1  0
 11 47  1  0
 12 48  1  0
 12 49  1  0
 13 50  1  0
 15 51  1  0
 15 52  1  0
 16 53  1  0
 18 54  1  0
 20 55  1  0
 22 56  1  0
 24 57  1  0
 27 58  1  0
 27 59  1  0
 27 60  1  0
 31 61  1  0
 31 62  1  0
 31 63  1  0
 34 64  1  0
 34 65  1  0
 34 66  1  0
 36 67  1  0
 36 68  1  0
 36 69  1  0
M  END
> <Name>
RCF2009 - Intermediário - (74)

> <Clean Energy>
RCF2009 - Intermediário - (74)

$$$$
RCF2009 - Intermediário - (75)
  SciTegic12132405553D

 69 70  0  0  0  0            999 V2000
    7.0404    4.6840    1.9149 C   0  0
    6.5575    4.5322    0.6008 C   0  0
    6.7904    3.3423   -0.1095 C   0  0
    7.5434    2.2922    0.4648 C   0  0
    8.0702    2.4773    1.7662 C   0  0
    7.8292    3.6650    2.4902 C   0  0
    6.6974    5.8189    2.6026 O   0  0
    8.3290    3.8016    3.7582 O   0  0
    9.6139    4.4494    3.7778 C   0  0
    7.7331    1.0162   -0.2818 C   0  0
    8.5799    1.1623   -1.5768 C   0  0
    8.6858   -0.1637   -2.3667 C   0  0
    9.4378    0.0244   -3.5608 O   0  0
    3.2506    7.9230   -0.7874 O   0  0
    2.8952    8.0734    0.5978 C   0  0
    3.0109    6.7375    1.4005 C   0  0  1  0  0  0
    4.2136    6.7683    2.2055 O   0  0
    4.4398    5.5668    2.9802 C   0  0  1  0  0  0
    5.7712    5.5711    3.5351 O   0  0
    3.3452    5.4448    4.0736 C   0  0  2  0  0  0
    3.5546    4.2366    4.8330 O   0  0
    1.9569    5.3585    3.3732 C   0  0  1  0  0  0
    0.9002    5.4881    4.3472 O   0  0
    1.7498    6.4653    2.2926 C   0  0  2  0  0  0
    0.5827    6.1560    1.4986 O   0  0
    3.2192    8.9159   -1.7304 C   0  0
    3.4949    8.5861   -3.1368 C   0  0
    2.9559   10.0995   -1.4123 O   0  0
    0.3792    5.1061    0.6341 C   0  0
    1.2781    4.2699    0.3779 O   0  0
   -0.9237    4.9261   -0.0202 C   0  0
   -0.2911    4.8235    4.4711 C   0  0
   -1.1797    5.3983    5.1405 O   0  0
   -0.6038    3.4968    3.9111 C   0  0
    3.4683    4.0096    6.1805 C   0  0
    3.0284    5.0115    7.1693 C   0  0
    3.7558    2.8542    6.5690 O   0  0
    5.9995    5.3416    0.1300 H   0  0
    6.3833    3.2328   -1.1147 H   0  0
    8.6730    1.6904    2.2195 H   0  0
    9.9258    4.6067    4.8103 H   0  0
   10.3452    3.8214    3.2689 H   0  0
    9.5438    5.4108    3.2689 H   0  0
    8.3029    0.3769    0.3925 H   0  0
    6.7318    0.7216   -0.5960 H   0  0
    9.5927    1.4018   -1.2528 H   0  0
    8.0357    1.8537   -2.2200 H   0  0
    9.2708   -0.8646   -1.7712 H   0  0
    7.6853   -0.4365   -2.7024 H   0  0
    9.6706   -0.8304   -3.9304 H   0  0
    3.6391    8.7630    0.9969 H   0  0
    1.8430    8.3572    0.5803 H   0  0
    3.1440    5.8998    0.7159 H   0  0
    4.4315    4.7182    2.2962 H   0  0
    3.4038    6.2609    4.7938 H   0  0
    1.8636    4.3678    2.9283 H   0  0
    1.5030    7.4036    2.7894 H   0  0
    3.5187    7.5031   -3.2581 H   0  0
    2.7119    9.0053   -3.7686 H   0  0
    4.4586    9.0053   -3.4262 H   0  0
   -1.6994    4.8189    0.7381 H   0  0
   -1.1411    5.7945   -0.6421 H   0  0
   -0.8975    4.0313   -0.6421 H   0  0
   -0.7705    2.7895    4.7235 H   0  0
   -1.5023    3.5639    3.2977 H   0  0
    0.2301    3.1556    3.2977 H   0  0
    3.1971    4.6274    8.1753 H   0  0
    3.5964    5.9316    7.0316 H   0  0
    1.9666    5.2159    7.0316 H   0  0
  1  2  1  0
  2  3  2  0
  3  4  1  0
  4  5  2  0
  5  6  1  0
  1  6  2  0
  1  7  1  0
  6  8  1  0
  8  9  1  0
  4 10  1  0
 11 12  1  0
 12 13  1  0
 10 11  1  0
 14 15  1  0
 16 15  1  0
 16 17  1  0
 18 17  1  0
 18 19  1  0
 20 18  1  0
 20 21  1  0
 22 20  1  0
 22 23  1  0
 24 22  1  0
 24 16  1  0
 24 25  1  0
 19  7  1  0
 14 26  1  0
 26 27  1  0
 25 29  1  0
 29 31  1  0
 23 32  1  0
 32 34  1  0
 21 35  1  0
 35 36  1  0
 26 28  2  0
 29 30  2  0
 32 33  2  0
 35 37  2  0
  2 38  1  0
  3 39  1  0
  5 40  1  0
  9 41  1  0
  9 42  1  0
  9 43  1  0
 10 44  1  0
 10 45  1  0
 11 46  1  0
 11 47  1  0
 12 48  1  0
 12 49  1  0
 13 50  1  0
 15 51  1  0
 15 52  1  0
 16 53  1  0
 18 54  1  0
 20 55  1  0
 22 56  1  0
 24 57  1  0
 27 58  1  0
 27 59  1  0
 27 60  1  0
 31 61  1  0
 31 62  1  0
 31 63  1  0
 34 64  1  0
 34 65  1  0
 34 66  1  0
 36 67  1  0
 36 68  1  0
 36 69  1  0
M  END
> <Name>
RCF2009 - Intermediário - (75)

> <Clean Energy>
RCF2009 - Intermediário - (75)

$$$$
RCF2009 - Intermediário - (76)
  SciTegic12132405553D

 74 75  0  0  0  0            999 V2000
   -6.1179    0.2924    4.8300 O   0  0
   -6.5980    1.1433    5.8784 C   0  0
   -6.7400    0.3265    7.1984 C   0  0  1  0  0  0
   -5.5913    0.5555    8.0532 O   0  0
   -5.5860   -0.2117    9.2863 C   0  0  1  0  0  0
   -4.4349    0.1278   10.0905 O   0  0
   -6.8458    0.0895   10.1389 C   0  0  2  0  0  0
   -6.8500   -0.7809   11.2894 O   0  0
   -8.1083   -0.1745    9.2792 C   0  0  1  0  0  0
   -9.2714    0.1083   10.0649 O   0  0
   -8.0566    0.6525    7.9639 C   0  0  1  0  0  0
   -8.0738    2.0545    8.2702 O   0  0
   -6.9141   -0.4697   12.6205 C   0  0
   -7.1756    0.8876   13.1386 C   0  0
   -6.7694   -1.4174   13.4257 O   0  0
  -10.5462   -0.2931    9.7808 C   0  0
  -11.6159   -0.0091   10.7427 C   0  0
  -10.8316   -0.9211    8.7334 O   0  0
   -8.9670    2.9970    7.8586 C   0  0
   -9.9535    2.7063    7.1428 O   0  0
   -8.7496    4.3917    8.2567 C   0  0
   -4.9982    0.4202    4.0654 C   0  0
   -4.7625   -0.6024    3.0374 C   0  0
   -4.1943    1.3689    4.2208 O   0  0
   -3.2710   -0.4193    9.6270 C   0  0
   -2.4438    0.2989    8.7384 C   0  0
   -2.8952   -1.7086   10.0515 C   0  0
   -1.7312   -2.3082    9.5406 C   0  0
   -0.9216   -1.6273    8.6014 C   0  0
   -1.2827   -0.3126    8.2231 C   0  0
   -2.7856    1.5643    8.3423 O   0  0
   -2.2059    2.5900    9.1678 C   0  0
    0.2702   -2.2871    7.9993 C   0  0
    1.6129   -1.8177    8.6200 C   0  0
    2.8298   -2.5356    7.9856 C   0  0
    4.0353   -2.1106    8.6374 O   0  0
    5.4409   -2.8625    7.9870 S   0  0
    5.3119   -4.4567    8.0881 O   0  0
    5.6342   -2.4181    6.4597 O   0  0
    6.8741   -2.3054    8.9711 C   0  0
   -5.8159    1.8886    6.0228 H   0  0
   -7.5941    1.4529    5.5620 H   0  0
   -6.7198   -0.7381    6.9654 H   0  0
   -5.5017   -1.2523    8.9730 H   0  0
   -6.8410    1.1046   10.5362 H   0  0
   -8.2242   -1.2284    9.0260 H   0  0
   -8.9435    0.4755    7.3555 H   0  0
   -7.1717    0.8674   14.2284 H   0  0
   -6.4002    1.5671   12.7850 H   0  0
   -8.1480    1.2304   12.7850 H   0  0
  -11.2294   -0.1117   11.7567 H   0  0
  -11.9784    1.0079   10.5932 H   0  0
  -12.4351   -0.7124   10.5932 H   0  0
   -8.7387    4.4616    9.3444 H   0  0
   -7.7949    4.7380    7.8608 H   0  0
   -9.5536    5.0121    7.8608 H   0  0
   -4.5427   -1.5561    3.5173 H   0  0
   -5.6522   -0.7049    2.4161 H   0  0
   -3.9177   -0.3051    2.4161 H   0  0
   -3.5070   -2.2440   10.7775 H   0  0
   -1.4545   -3.3081    9.8752 H   0  0
   -0.6554    0.2387    7.5226 H   0  0
   -2.3496    2.3357   10.2179 H   0  0
   -1.1396    2.6679    8.9555 H   0  0
   -2.6892    3.5436    8.9555 H   0  0
    0.1644   -3.3441    8.2436 H   0  0
    0.2774   -1.9666    6.9575 H   0  0
    1.7151   -0.7631    8.3643 H   0  0
    1.5898   -2.1253    9.6655 H   0  0
    2.7439   -3.6005    8.2020 H   0  0
    2.9228   -2.1947    6.9545 H   0  0
    6.6430   -2.3952   10.0325 H   0  0
    7.7399   -2.9237    8.7342 H   0  0
    7.0951   -1.2646    8.7342 H   0  0
  1  2  1  0
  3  2  1  0
  3  4  1  0
  5  4  1  0
  5  6  1  0
  7  5  1  0
  7  8  1  0
  9  7  1  0
  9 10  1  0
 11  9  1  0
 11  3  1  0
 11 12  1  0
  8 13  1  0
 13 14  1  0
 10 16  1  0
 16 17  1  0
 12 19  1  0
 19 21  1  0
  1 22  1  0
 22 23  1  0
 22 24  2  0
 19 20  2  0
 16 18  2  0
 13 15  2  0
  6 25  1  0
 27 28  1  0
 28 29  2  0
 29 30  1  0
 26 30  2  0
 26 25  1  0
 25 27  2  0
 26 31  1  0
 31 32  1  0
 29 33  1  0
 33 34  1  0
 34 35  1  0
 35 36  1  0
 36 37  1  0
 37 40  1  0
 37 38  2  0
 37 39  2  0
  2 41  1  0
  2 42  1  0
  3 43  1  0
  5 44  1  0
  7 45  1  0
  9 46  1  0
 11 47  1  0
 14 48  1  0
 14 49  1  0
 14 50  1  0
 17 51  1  0
 17 52  1  0
 17 53  1  0
 21 54  1  0
 21 55  1  0
 21 56  1  0
 23 57  1  0
 23 58  1  0
 23 59  1  0
 27 60  1  0
 28 61  1  0
 30 62  1  0
 32 63  1  0
 32 64  1  0
 32 65  1  0
 33 66  1  0
 33 67  1  0
 34 68  1  0
 34 69  1  0
 35 70  1  0
 35 71  1  0
 40 72  1  0
 40 73  1  0
 40 74  1  0
M  END
> <Name>
RCF2009 - Intermediário - (76)

> <Clean Energy>
RCF2009 - Intermediário - (76)

$$$$
RCF2009 - Intermediário - (77)
  SciTegic12132405553D

 74 75  0  0  0  0            999 V2000
  -14.8505   -0.5606   -2.1580 O   0  0
  -14.9433    0.0087   -0.8466 C   0  0
  -14.8295   -1.0949    0.2531 C   0  0  1  0  0  0
  -13.5311   -0.9659    0.8653 O   0  0
  -13.2431   -1.9209    1.9087 C   0  0  1  0  0  0
  -11.8578   -1.7857    2.3110 O   0  0
  -14.1978   -1.6334    3.0953 C   0  0  2  0  0  0
  -13.9506   -2.5894    4.1426 O   0  0
  -15.6789   -1.7746    2.6422 C   0  0  1  0  0  0
  -16.4932   -1.2642    3.7105 O   0  0
  -15.9705   -0.9900    1.3221 C   0  0  2  0  0  0
  -17.2465   -1.3392    0.7464 O   0  0
  -13.9951   -2.4238    5.4996 C   0  0
  -14.1749   -1.1198    6.1669 C   0  0
  -13.8541   -3.4559    6.1935 O   0  0
  -17.8321   -1.4284    3.8835 C   0  0
  -18.4603   -2.7526    4.0041 C   0  0
  -18.5289   -0.4003    4.0338 O   0  0
  -17.6576   -2.5452    0.2410 C   0  0
  -16.9345   -3.5688    0.2926 O   0  0
  -18.9841   -2.6684   -0.3762 C   0  0
  -14.9332    0.1164   -3.3393 C   0  0
  -14.8312   -0.6447   -4.5897 C   0  0
  -15.0912    1.3604   -3.3709 O   0  0
  -10.9777   -2.1348    1.3114 C   0  0
  -10.4953   -1.1711    0.3951 C   0  0
  -10.5647   -3.4771    1.1823 C   0  0
   -9.7513   -3.8720    0.1040 C   0  0
   -9.3180   -2.9288   -0.8553 C   0  0
   -9.6800   -1.5733   -0.6828 C   0  0
  -10.8517    0.1465    0.5037 O   0  0
   -9.9252    0.9212    1.2841 C   0  0
   -8.5152   -3.3450   -2.0366 C   0  0
   -7.0023   -3.0671   -1.8431 C   0  0
   -6.1637   -3.5380   -3.0527 C   0  0
   -4.7763   -3.2943   -2.7881 O   0  0
   -3.7765   -3.7760   -4.1011 S   0  0
   -4.0241   -5.3228   -4.4383 O   0  0
   -4.0918   -2.8601   -5.3779 O   0  0
   -2.0465   -3.5325   -3.5781 C   0  0
  -14.0725    0.6589   -0.7617 H   0  0
  -15.9465    0.4319   -0.7957 H   0  0
  -14.8622   -2.0940   -0.1814 H   0  0
  -13.3476   -2.9296    1.5093 H   0  0
  -13.9991   -0.6480    3.5168 H   0  0
  -15.9518   -2.8197    2.4959 H   0  0
  -16.1027    0.0567    1.5963 H   0  0
  -14.1557   -1.2590    7.2478 H   0  0
  -13.3693   -0.4470    5.8729 H   0  0
  -15.1326   -0.6902    5.8729 H   0  0
  -18.5794   -3.0036    5.0581 H   0  0
  -19.4376   -2.7363    3.5218 H   0  0
  -17.8294   -3.4993    3.5218 H   0  0
  -19.7425   -2.7389    0.4035 H   0  0
  -19.1796   -1.7928   -0.9952 H   0  0
  -19.0150   -3.5651   -0.9952 H   0  0
  -14.8493   -1.7117   -4.3680 H   0  0
  -15.6713   -0.3938   -5.2373 H   0  0
  -13.8973   -0.3938   -5.0926 H   0  0
  -10.8765   -4.2150    1.9215 H   0  0
   -9.4545   -4.9167    0.0112 H   0  0
   -9.3248   -0.8260   -1.3924 H   0  0
  -10.1190    0.7592    2.3444 H   0  0
   -8.9063    0.6131    1.0497 H   0  0
  -10.0481    1.9786    1.0497 H   0  0
   -8.6339   -4.4265   -2.1015 H   0  0
   -8.8529   -2.7095   -2.8553 H   0  0
   -6.8939   -1.9832   -1.8028 H   0  0
   -6.6853   -3.6784   -0.9982 H   0  0
   -6.2600   -4.6209   -3.1307 H   0  0
   -6.4136   -2.9059   -3.9048 H   0  0
   -1.9937   -3.5250   -2.4894 H   0  0
   -1.4319   -4.3447   -3.9661 H   0  0
   -1.6800   -2.5821   -3.9661 H   0  0
  1  2  1  0
  3  2  1  0
  3  4  1  0
  5  4  1  0
  5  6  1  0
  7  5  1  0
  7  8  1  0
  9  7  1  0
  9 10  1  0
 11  9  1  0
 11  3  1  0
 11 12  1  0
  8 13  1  0
 13 14  1  0
 10 16  1  0
 16 17  1  0
 12 19  1  0
 19 21  1  0
  1 22  1  0
 22 23  1  0
 22 24  2  0
 19 20  2  0
 16 18  2  0
 13 15  2  0
  6 25  1  0
 27 28  1  0
 28 29  2  0
 29 30  1  0
 26 30  2  0
 26 25  1  0
 25 27  2  0
 26 31  1  0
 31 32  1  0
 29 33  1  0
 33 34  1  0
 34 35  1  0
 35 36  1  0
 36 37  1  0
 37 40  1  0
 37 38  2  0
 37 39  2  0
  2 41  1  0
  2 42  1  0
  3 43  1  0
  5 44  1  0
  7 45  1  0
  9 46  1  0
 11 47  1  0
 14 48  1  0
 14 49  1  0
 14 50  1  0
 17 51  1  0
 17 52  1  0
 17 53  1  0
 21 54  1  0
 21 55  1  0
 21 56  1  0
 23 57  1  0
 23 58  1  0
 23 59  1  0
 27 60  1  0
 28 61  1  0
 30 62  1  0
 32 63  1  0
 32 64  1  0
 32 65  1  0
 33 66  1  0
 33 67  1  0
 34 68  1  0
 34 69  1  0
 35 70  1  0
 35 71  1  0
 40 72  1  0
 40 73  1  0
 40 74  1  0
M  END
> <Name>
RCF2009 - Intermediário - (77)

> <Clean Energy>
RCF2009 - Intermediário - (77)

$$$$
RCF2009 - Intermediário - (78)
  SciTegic12132405553D

 69 70  0  0  0  0            999 V2000
   -9.9207    3.4129   -3.8799 O   0  0
  -10.4063    4.1220   -2.7289 C   0  0
  -10.4427    3.1779   -1.4909 C   0  0  1  0  0  0
   -9.2565    3.3911   -0.6851 O   0  0
   -9.1296    2.5213    0.4678 C   0  0  1  0  0  0
   -7.9592    2.8877    1.2302 O   0  0
  -10.3547    2.6571    1.4096 C   0  0  2  0  0  0
  -10.2305    1.6879    2.4697 O   0  0
  -11.6602    2.4061    0.6078 C   0  0  1  0  0  0
  -12.7930    2.5690    1.4741 O   0  0
  -11.7275    3.3559   -0.6235 C   0  0  1  0  0  0
  -11.8079    4.7214   -0.1767 O   0  0
  -10.1762    1.8781    3.8243 C   0  0
  -10.4743    3.1614    4.4923 C   0  0
   -9.8694    0.8802    4.5165 O   0  0
  -14.0569    2.0942    1.2726 C   0  0
  -15.0875    2.3345    2.2917 C   0  0
  -14.3537    1.4389    0.2454 O   0  0
  -12.7828    5.6414   -0.4288 C   0  0
  -13.7966    5.3598   -1.1088 O   0  0
  -12.6291    7.0041    0.0948 C   0  0
   -8.8051    3.6411   -4.6284 C   0  0
   -8.5755    2.7795   -5.7976 C   0  0
   -7.9851    4.5407   -4.3326 O   0  0
   -6.7913    2.4657    0.6584 C   0  0
   -6.0564    3.3088   -0.2024 C   0  0
   -6.3182    1.1700    0.9430 C   0  0
   -5.1503    0.6912    0.3253 C   0  0
   -4.4272    1.5061   -0.5767 C   0  0
   -4.8875    2.8212   -0.8221 C   0  0
   -6.4857    4.5822   -0.4690 O   0  0
   -5.9293    5.5590    0.4290 C   0  0
   -3.2137    0.9941   -1.2666 C   0  0
   -1.8999    1.5486   -0.6540 C   0  0
   -0.6401    0.9829   -1.3553 C   0  0
    0.5147    1.4760   -0.7607 N   0  0
    1.5879    1.1767   -1.1019 N   0  0
    2.6578    0.8781   -1.4414 N   0  0
   -9.6656    4.8988   -2.5388 H   0  0
  -11.4324    4.3957   -2.9743 H   0  0
  -10.3944    2.1426   -1.8283 H   0  0
   -8.9967    1.5174    0.0644 H   0  0
  -10.3862    3.6300    1.9001 H   0  0
  -11.7403    1.3709    0.2761 H   0  0
  -12.6354    3.1862   -1.2023 H   0  0
  -10.4425    3.0244    5.5732 H   0  0
   -9.7333    3.9048    4.1984 H   0  0
  -11.4671    3.5021    4.1984 H   0  0
  -14.6482    2.2321    3.2840 H   0  0
  -15.4875    3.3415    2.1736 H   0  0
  -15.8916    1.6081    2.1736 H   0  0
  -12.6321    6.9771    1.1845 H   0  0
  -11.6862    7.4238   -0.2556 H   0  0
  -13.4549    7.6232   -0.2556 H   0  0
   -8.6348    1.7339   -5.4956 H   0  0
   -9.3341    2.9830   -6.5534 H   0  0
   -7.5875    2.9830   -6.2105 H   0  0
   -6.8586    0.5347    1.6447 H   0  0
   -4.8034   -0.3181    0.5472 H   0  0
   -4.3324    3.4695   -1.5000 H   0  0
   -6.1062    5.2484    1.4587 H   0  0
   -4.8567    5.6438    0.2543 H   0  0
   -6.4033    6.5249    0.2543 H   0  0
   -3.2156   -0.0817   -1.0914 H   0  0
   -3.2766    1.3807   -2.2838 H   0  0
   -1.9008    2.6206   -0.8512 H   0  0
   -1.8650    1.1833    0.3724 H   0  0
   -0.6016   -0.0921   -1.1791 H   0  0
   -0.6105    1.3695   -2.3740 H   0  0
  1  2  1  0
  3  2  1  0
  3  4  1  0
  5  4  1  0
  5  6  1  0
  7  5  1  0
  7  8  1  0
  9  7  1  0
  9 10  1  0
 11  9  1  0
 11  3  1  0
 11 12  1  0
  8 13  1  0
 13 14  1  0
 10 16  1  0
 16 17  1  0
 12 19  1  0
 19 21  1  0
  1 22  1  0
 22 23  1  0
 22 24  2  0
 19 20  2  0
 16 18  2  0
 13 15  2  0
  6 25  1  0
 27 28  1  0
 28 29  2  0
 29 30  1  0
 26 30  2  0
 26 25  1  0
 25 27  2  0
 26 31  1  0
 31 32  1  0
 29 33  1  0
 33 34  1  0
 34 35  1  0
 35 36  1  0
 37 38  2  0
 36 37  2  0
  2 39  1  0
  2 40  1  0
  3 41  1  0
  5 42  1  0
  7 43  1  0
  9 44  1  0
 11 45  1  0
 14 46  1  0
 14 47  1  0
 14 48  1  0
 17 49  1  0
 17 50  1  0
 17 51  1  0
 21 52  1  0
 21 53  1  0
 21 54  1  0
 23 55  1  0
 23 56  1  0
 23 57  1  0
 27 58  1  0
 28 59  1  0
 30 60  1  0
 32 61  1  0
 32 62  1  0
 32 63  1  0
 33 64  1  0
 33 65  1  0
 34 66  1  0
 34 67  1  0
 35 68  1  0
 35 69  1  0
M  END
> <Name>
RCF2009 - Intermediário - (78)

> <Clean Energy>
RCF2009 - Intermediário - (78)

$$$$
RCF2009 - Intermediário - (79)
  SciTegic12132405553D

 69 70  0  0  0  0            999 V2000
   -9.1076    4.6989   -3.8311 O   0  0
   -9.9789    5.1810   -2.7971 C   0  0
  -10.1285    4.1184   -1.6721 C   0  0  1  0  0  0
   -8.9763    4.2392   -0.8068 O   0  0
   -8.9588    3.3370    0.3236 C   0  0  1  0  0  0
   -7.7615    3.5390    1.1080 O   0  0
  -10.1883    3.6005    1.2295 C   0  0  2  0  0  0
  -10.1703    2.6377    2.2979 O   0  0
  -11.4988    3.4295    0.4141 C   0  0  1  0  0  0
  -12.6072    3.8226    1.2413 O   0  0
  -11.4641    4.2963   -0.8795 C   0  0  2  0  0  0
  -12.6051    4.0826   -1.7347 O   0  0
  -10.2684    2.8282    3.6454 C   0  0
  -10.6360    4.1126    4.2698 C   0  0
  -10.0746    1.8200    4.3613 O   0  0
  -13.9338    3.5201    1.1004 C   0  0
  -14.4477    2.2028    0.6856 C   0  0
  -14.7607    4.3998    1.4306 O   0  0
  -13.0174    2.9526   -2.3841 C   0  0
  -12.4589    1.8441   -2.2153 O   0  0
  -14.1666    3.0567   -3.2946 C   0  0
   -8.8361    5.3409   -5.0080 C   0  0
   -7.9608    4.6882   -5.9933 C   0  0
   -9.3315    6.4647   -5.2627 O   0  0
   -6.6202    3.1696    0.4465 C   0  0
   -5.8350    4.1357   -0.2204 C   0  0
   -6.2290    1.8161    0.4274 C   0  0
   -5.0914    1.4171   -0.2935 C   0  0
   -4.3227    2.3628   -1.0106 C   0  0
   -4.7050    3.7248   -0.9582 C   0  0
   -6.1901    5.4594   -0.1927 O   0  0
   -5.6043    6.1811    0.9058 C   0  0
   -3.1508    1.9311   -1.8203 C   0  0
   -1.7970    2.3761   -1.2063 C   0  0
   -0.5832    1.9121   -2.0509 C   0  0
    0.6011    2.3114   -1.4432 N   0  0
    1.6594    2.0650   -1.8654 N   0  0
    2.7166    1.8224   -2.2792 N   0  0
   -9.4684    6.0468   -2.3756 H   0  0
  -10.9503    5.3012   -3.2768 H   0  0
  -10.1034    3.1036   -2.0692 H   0  0
   -8.9222    2.3287   -0.0890 H   0  0
  -10.1439    4.5872    1.6905 H   0  0
  -11.6717    2.3840    0.1590 H   0  0
  -11.5965    5.3378   -0.5865 H   0  0
  -10.6068    4.0108    5.3546 H   0  0
   -9.9308    4.8831    3.9581 H   0  0
  -11.6420    4.3934    3.9581 H   0  0
  -14.6795    1.6086    1.5695 H   0  0
  -15.3510    2.3362    0.0903 H   0  0
  -13.6927    1.6893    0.0903 H   0  0
  -15.0847    3.1398   -2.7130 H   0  0
  -14.0534    3.9401   -3.9231 H   0  0
  -14.2139    2.1674   -3.9231 H   0  0
   -7.1926    4.1155   -5.4737 H   0  0
   -8.5525    4.0193   -6.6181 H   0  0
   -7.4885    5.4462   -6.6181 H   0  0
   -6.8101    1.0731    0.9738 H   0  0
   -4.8031    0.3659   -0.2965 H   0  0
   -4.1189    4.4704   -1.4955 H   0  0
   -5.2138    5.4742    1.6379 H   0  0
   -4.7923    6.8078    0.5370 H   0  0
   -6.3629    6.8078    1.3746 H   0  0
   -3.1676    0.8417   -1.7912 H   0  0
   -3.2520    2.4525   -2.7722 H   0  0
   -1.7913    3.4655   -1.2413 H   0  0
   -1.7141    1.8612   -0.2491 H   0  0
   -0.5480    0.8228   -2.0368 H   0  0
   -0.5996    2.4447   -3.0018 H   0  0
  1  2  1  0
  3  2  1  0
  3  4  1  0
  5  4  1  0
  5  6  1  0
  7  5  1  0
  7  8  1  0
  9  7  1  0
  9 10  1  0
 11  9  1  0
 11  3  1  0
 11 12  1  0
  8 13  1  0
 13 14  1  0
 10 16  1  0
 16 17  1  0
 12 19  1  0
 19 21  1  0
  1 22  1  0
 22 23  1  0
 22 24  2  0
 19 20  2  0
 16 18  2  0
 13 15  2  0
  6 25  1  0
 27 28  1  0
 28 29  2  0
 29 30  1  0
 26 30  2  0
 26 25  1  0
 25 27  2  0
 26 31  1  0
 31 32  1  0
 29 33  1  0
 33 34  1  0
 34 35  1  0
 35 36  1  0
 37 38  2  0
 36 37  2  0
  2 39  1  0
  2 40  1  0
  3 41  1  0
  5 42  1  0
  7 43  1  0
  9 44  1  0
 11 45  1  0
 14 46  1  0
 14 47  1  0
 14 48  1  0
 17 49  1  0
 17 50  1  0
 17 51  1  0
 21 52  1  0
 21 53  1  0
 21 54  1  0
 23 55  1  0
 23 56  1  0
 23 57  1  0
 27 58  1  0
 28 59  1  0
 30 60  1  0
 32 61  1  0
 32 62  1  0
 32 63  1  0
 33 64  1  0
 33 65  1  0
 34 66  1  0
 34 67  1  0
 35 68  1  0
 35 69  1  0
M  END
> <Name>
RCF2009 - Intermediário - (79)

> <Clean Energy>
RCF2009 - Intermediário - (79)

$$$$
RCF2009 - Intermediário - (80)
  SciTegic12132405553D

 49 50  0  0  0  0            999 V2000
  -10.0688    3.9941   -3.2673 O   0  0
  -11.0131    4.2687   -2.2325 C   0  0
  -10.6504    3.4918   -0.9390 C   0  0  1  0  0  0
   -9.3345    3.9077   -0.5153 O   0  0
   -8.7953    3.1915    0.6243 C   0  0  1  0  0  0
   -7.4708    3.6794    0.9408 O   0  0
   -9.7121    3.3945    1.8595 C   0  0  2  0  0  0
   -9.2212    2.6493    2.9742 O   0  0
  -11.1669    2.9774    1.5120 C   0  0  1  0  0  0
  -12.0383    3.2299    2.6144 O   0  0
  -11.6630    3.7080    0.2291 C   0  0  1  0  0  0
  -11.8257    5.0986    0.5199 O   0  0
   -6.5899    3.4903   -0.0902 C   0  0
   -6.4271    4.4919   -1.0729 C   0  0
   -5.8676    2.2847   -0.1883 C   0  0
   -5.0347    2.0516   -1.2958 C   0  0
   -4.9047    3.0227   -2.3149 C   0  0
   -5.6181    4.2369   -2.1960 C   0  0
   -7.0928    5.6861   -0.9714 O   0  0
   -6.3621    6.6937   -0.2438 C   0  0
   -4.0000    2.7946   -3.4694 C   0  0
   -2.5732    3.3178   -3.1589 C   0  0
   -1.5949    3.1063   -4.3379 C   0  0
   -0.3246    3.5744   -4.0285 N   0  0
    0.5688    3.5080   -4.7741 N   0  0
    1.4547    3.4384   -5.5217 N   0  0
   -9.9745    3.0444   -3.3706 H   0  0
  -10.9049    5.3336   -2.0268 H   0  0
  -11.9607    3.8789   -2.6044 H   0  0
  -10.6055    2.4264   -1.1646 H   0  0
   -8.6978    2.1495    0.3193 H   0  0
   -9.6766    4.4250    2.2127 H   0  0
   -9.3016    1.7103    2.7917 H   0  0
  -11.2343    1.8971    1.3831 H   0  0
  -12.3329    2.3956    2.9871 H   0  0
  -12.6583    3.3799   -0.0706 H   0  0
  -11.8407    5.2270    1.4711 H   0  0
   -5.9534    1.5308    0.5943 H   0  0
   -4.4862    1.1122   -1.3648 H   0  0
   -5.5432    4.9880   -2.9824 H   0  0
   -6.4824    6.5277    0.8267 H   0  0
   -5.3053    6.6350   -0.5041 H   0  0
   -6.7462    7.6800   -0.5041 H   0  0
   -3.9312    1.7126   -3.5816 H   0  0
   -4.3984    3.4025   -4.2817 H   0  0
   -2.6659    4.3965   -3.0336 H   0  0
   -2.1964    2.7044   -2.3404 H   0  0
   -1.4612    2.0343   -4.4833 H   0  0
   -1.9201    3.7326   -5.1687 H   0  0
  1  2  1  0
  3  2  1  0
  3  4  1  0
  5  4  1  0
  5  6  1  0
  7  5  1  0
  7  8  1  0
  9  7  1  0
  9 10  1  0
 11  9  1  0
 11  3  1  0
 11 12  1  0
  6 13  1  0
 15 16  1  0
 16 17  2  0
 17 18  1  0
 14 18  2  0
 14 13  1  0
 13 15  2  0
 14 19  1  0
 19 20  1  0
 17 21  1  0
 21 22  1  0
 22 23  1  0
 23 24  1  0
 25 26  2  0
 24 25  2  0
  1 27  1  0
  2 28  1  0
  2 29  1  0
  3 30  1  0
  5 31  1  0
  7 32  1  0
  8 33  1  0
  9 34  1  0
 10 35  1  0
 11 36  1  0
 12 37  1  0
 15 38  1  0
 16 39  1  0
 18 40  1  0
 20 41  1  0
 20 42  1  0
 20 43  1  0
 21 44  1  0
 21 45  1  0
 22 46  1  0
 22 47  1  0
 23 48  1  0
 23 49  1  0
M  END
> <Name>
RCF2009 - Intermediário - (80)

> <Clean Energy>
RCF2009 - Intermediário - (80)

$$$$
RCF2009 - Intermediário - (81)
  SciTegic12132405553D

 49 50  0  0  0  0            999 V2000
   -9.3051    4.6615   -3.2821 O   0  0
  -10.4268    4.8729   -2.4293 C   0  0
  -10.3984    3.8559   -1.2630 C   0  0  1  0  0  0
   -9.1640    4.0571   -0.5424 O   0  0
   -8.9224    3.1336    0.5475 C   0  0  1  0  0  0
   -7.6507    3.4241    1.1714 O   0  0
  -10.0481    3.2806    1.6036 C   0  0  2  0  0  0
   -9.8565    2.3490    2.6671 O   0  0
  -11.4415    3.0861    0.9427 C   0  0  1  0  0  0
  -12.4788    3.3340    1.8909 O   0  0
  -11.6128    4.0090   -0.2969 C   0  0  2  0  0  0
  -12.8363    3.7094   -0.9713 O   0  0
   -6.5986    3.2760    0.3059 C   0  0
   -6.1381    4.3793   -0.4478 C   0  0
   -5.9853    2.0172    0.1459 C   0  0
   -4.9622    1.8417   -0.8025 C   0  0
   -4.5324    2.9221   -1.6073 C   0  0
   -5.1353    4.1885   -1.4214 C   0  0
   -6.7038    5.6171   -0.2863 O   0  0
   -6.0430    6.4169    0.7106 C   0  0
   -3.4463    2.7365   -2.6074 C   0  0
   -2.0558    3.0322   -1.9834 C   0  0
   -0.8914    2.8680   -2.9919 C   0  0
    0.3229    3.1369   -2.3706 N   0  0
    1.3492    3.0741   -2.9187 N   0  0
    2.3696    3.0093   -3.4709 N   0  0
   -8.5208    4.5136   -2.7486 H   0  0
  -10.2862    5.8703   -2.0128 H   0  0
  -11.2998    4.6577   -3.0454 H   0  0
  -10.3921    2.8368   -1.6496 H   0  0
   -8.8523    2.1356    0.1148 H   0  0
   -9.9903    4.2489    2.1007 H   0  0
   -9.9183    1.4546    2.3240 H   0  0
  -11.5826    2.0428    0.6603 H   0  0
  -12.1265    3.2498    2.7799 H   0  0
  -11.7355    5.0488    0.0062 H   0  0
  -13.5253    3.5407   -0.3245 H   0  0
   -6.3042    1.1745    0.7593 H   0  0
   -4.4992    0.8613   -0.9145 H   0  0
   -4.8223    5.0308   -2.0384 H   0  0
   -6.3297    6.0700    1.7034 H   0  0
   -4.9633    6.3265    0.5919 H   0  0
   -6.3355    7.4602    0.5919 H   0  0
   -3.4638    1.6782   -2.8681 H   0  0
   -3.6215    3.4899   -3.3754 H   0  0
   -2.0673    4.0867   -1.7077 H   0  0
   -1.9003    2.2707   -1.2192 H   0  0
   -0.8285    1.8184   -3.2790 H   0  0
   -0.9865    3.6378   -3.7577 H   0  0
  1  2  1  0
  3  2  1  0
  3  4  1  0
  5  4  1  0
  5  6  1  0
  7  5  1  0
  7  8  1  0
  9  7  1  0
  9 10  1  0
 11  9  1  0
 11  3  1  0
 11 12  1  0
  6 13  1  0
 15 16  1  0
 16 17  2  0
 17 18  1  0
 14 18  2  0
 14 13  1  0
 13 15  2  0
 14 19  1  0
 19 20  1  0
 17 21  1  0
 21 22  1  0
 22 23  1  0
 23 24  1  0
 25 26  2  0
 24 25  2  0
  1 27  1  0
  2 28  1  0
  2 29  1  0
  3 30  1  0
  5 31  1  0
  7 32  1  0
  8 33  1  0
  9 34  1  0
 10 35  1  0
 11 36  1  0
 12 37  1  0
 15 38  1  0
 16 39  1  0
 18 40  1  0
 20 41  1  0
 20 42  1  0
 20 43  1  0
 21 44  1  0
 21 45  1  0
 22 46  1  0
 22 47  1  0
 23 48  1  0
 23 49  1  0
M  END
> <Name>
RCF2009 - Intermediário - (81)

> <Clean Energy>
RCF2009 - Intermediário - (81)

$$$$
RCF2009 - Intermediário - (82)
  SciTegic12132405553D

101106  0  0  0  0            999 V2000
  -10.6050    2.3235   -4.7740 O   0  0
  -11.6414    2.6253   -3.8069 C   0  0
  -11.5291    1.6656   -2.5932 C   0  0  1  0  0  0
  -10.2588    1.8858   -1.9447 O   0  0
   -9.9508    0.9811   -0.8516 C   0  0  1  0  0  0
   -8.6761    1.3412   -0.2737 O   0  0
  -11.0433    1.1061    0.2481 C   0  0  2  0  0  0
  -10.7492    0.2195    1.3635 O   0  0
  -12.4314    0.8018   -0.3979 C   0  0  1  0  0  0
  -13.4576    0.8552    0.6083 O   0  0
  -12.6924    1.8217   -1.5603 C   0  0  1  0  0  0
  -12.7261    3.2045   -1.0996 O   0  0
   -7.6300    1.2046   -1.1484 C   0  0
   -6.8756    0.0125   -1.1698 C   0  0
   -7.2957    2.2565   -2.0246 C   0  0
   -6.2672    2.0956   -2.9682 C   0  0
   -5.5457    0.8827   -3.0458 C   0  0
   -5.8519   -0.1484   -2.1267 C   0  0
   -7.1560   -0.9938   -0.2836 O   0  0
   -6.3778   -0.9000    0.9240 C   0  0
   -4.4984    0.6880   -4.0838 C   0  0
   -3.0785    1.0614   -3.5826 C   0  0
   -2.0000    0.8069   -4.6668 C   0  0
   -0.7398    1.1608   -4.2013 N   0  0
    0.2311    1.0609   -4.8384 N   0  0
    1.1999    0.9619   -5.4718 N   0  0
  -10.6966    3.0823   -5.9993 C   0  0
   -9.5617    2.7599   -6.9063 C   0  0
  -13.9777    3.6955   -0.5668 C   0  0
  -13.8494    5.1589   -0.1267 C   0  0
  -14.6560    0.0991    0.3503 C   0  0
  -15.7090    0.6381    1.2396 C   0  0
  -11.0493    0.7801    2.6682 C   0  0
  -10.7988   -0.1713    3.7777 C   0  0
   -7.4380    2.2270   -8.7117 C   0  0
   -7.3026    3.2365   -7.7431 C   0  0
   -8.3544    3.4971   -6.8444 C   0  0
   -9.6687    1.7255   -7.8677 C   0  0
   -8.6169    1.4636   -8.7664 C   0  0
  -13.7743    7.9429    0.5746 C   0  0
  -12.9565    7.0541    1.2929 C   0  0
  -13.0055    5.6587    0.9316 C   0  0
  -14.6451    6.1221   -0.7938 C   0  0
  -14.6102    7.4858   -0.4555 C   0  0
  -16.8719    1.2554    0.7169 C   0  0
  -17.8366    1.8109    1.5775 C   0  0
  -17.6553    1.7465    2.9702 C   0  0
  -16.5094    1.1287    3.5020 C   0  0
  -15.5438    0.5759    2.6426 C   0  0
  -10.0427    0.2085    4.9142 C   0  0
   -9.8737   -0.6772    5.9945 C   0  0
  -10.4482   -1.9592    5.9478 C   0  0
  -11.1919   -2.3541    4.8227 C   0  0
  -11.3695   -1.4641    3.7475 C   0  0
  -11.4263    3.6345   -3.4556 H   0  0
  -12.5828    2.4137   -4.3139 H   0  0
  -11.5252    0.6369   -2.9534 H   0  0
   -9.8600   -0.0201   -1.2727 H   0  0
  -11.0421    2.0891    0.7189 H   0  0
  -12.5065   -0.2228   -0.7621 H   0  0
  -13.6865    1.6739   -1.9823 H   0  0
   -7.8366    3.2014   -1.9721 H   0  0
   -6.0276    2.9165   -3.6440 H   0  0
   -5.2899   -1.0819   -2.1562 H   0  0
   -6.1452   -1.9019    1.2850 H   0  0
   -5.4515   -0.3636    0.7186 H   0  0
   -6.9477   -0.3636    1.6827 H   0  0
   -4.4904   -0.3830   -4.2862 H   0  0
   -4.7478    1.3910   -4.8786 H   0  0
   -3.0886    2.1374   -3.4088 H   0  0
   -2.8542    0.3790   -2.7628 H   0  0
   -1.9348   -0.2670   -4.8418 H   0  0
   -2.1835    1.4847   -5.5005 H   0  0
  -11.6068    2.7437   -6.4942 H   0  0
  -10.5889    4.1284   -5.7128 H   0  0
  -14.6793    3.6641   -1.4004 H   0  0
  -14.1656    3.0998    0.3264 H   0  0
  -14.9488    0.3121   -0.6778 H   0  0
  -14.4547   -0.9269    0.6583 H   0  0
  -10.3470    1.6028    2.8028 H   0  0
  -12.1219    0.9742    2.6647 H   0  0
   -6.6307    2.0366   -9.4188 H   0  0
   -6.3818    3.8173   -7.6890 H   0  0
   -8.2328    4.2774   -6.0932 H   0  0
  -10.5748    1.1215   -7.9167 H   0  0
   -8.7155    0.6686   -9.5056 H   0  0
  -13.7600    9.0046    0.8206 H   0  0
  -12.3156    7.4286    2.0911 H   0  0
  -12.3801    4.9543    1.4800 H   0  0
  -15.3087    5.8020   -1.5971 H   0  0
  -15.2367    8.1950   -0.9966 H   0  0
  -17.0265    1.3034   -0.3610 H   0  0
  -18.7242    2.2911    1.1655 H   0  0
  -18.4029    2.1754    3.6374 H   0  0
  -16.3694    1.0784    4.5818 H   0  0
  -14.6617    0.0960    3.0666 H   0  0
   -9.5843    1.1964    4.9580 H   0  0
   -9.2977   -0.3702    6.8675 H   0  0
  -10.3170   -2.6466    6.7835 H   0  0
  -11.6311   -3.3510    4.7841 H   0  0
  -11.9544   -1.7789    2.8833 H   0  0
  1  2  1  0
  3  2  1  0
  3  4  1  0
  5  4  1  0
  5  6  1  0
  7  5  1  0
  7  8  1  0
  9  7  1  0
  9 10  1  0
 11  9  1  0
 11  3  1  0
 11 12  1  0
  6 13  1  0
 15 16  1  0
 16 17  2  0
 17 18  1  0
 14 18  2  0
 14 13  1  0
 13 15  2  0
 14 19  1  0
 19 20  1  0
 17 21  1  0
 21 22  1  0
 22 23  1  0
 23 24  1  0
 25 26  2  0
 24 25  2  0
  1 27  1  0
 27 28  1  0
 12 29  1  0
 29 30  1  0
 10 31  1  0
 31 32  1  0
  8 33  1  0
 33 34  1  0
 35 36  1  0
 36 37  2  0
 38 39  1  0
 35 39  2  0
 37 28  1  0
 28 38  2  0
 40 41  1  0
 41 42  2  0
 43 44  1  0
 40 44  2  0
 42 30  1  0
 30 43  2  0
 45 46  1  0
 46 47  2  0
 47 48  1  0
 48 49  2  0
 49 32  1  0
 45 32  2  0
 50 51  2  0
 51 52  1  0
 52 53  2  0
 53 54  1  0
 34 50  1  0
 34 54  2  0
  2 55  1  0
  2 56  1  0
  3 57  1  0
  5 58  1  0
  7 59  1  0
  9 60  1  0
 11 61  1  0
 15 62  1  0
 16 63  1  0
 18 64  1  0
 20 65  1  0
 20 66  1  0
 20 67  1  0
 21 68  1  0
 21 69  1  0
 22 70  1  0
 22 71  1  0
 23 72  1  0
 23 73  1  0
 27 74  1  0
 27 75  1  0
 29 76  1  0
 29 77  1  0
 31 78  1  0
 31 79  1  0
 33 80  1  0
 33 81  1  0
 35 82  1  0
 36 83  1  0
 37 84  1  0
 38 85  1  0
 39 86  1  0
 40 87  1  0
 41 88  1  0
 42 89  1  0
 43 90  1  0
 44 91  1  0
 45 92  1  0
 46 93  1  0
 47 94  1  0
 48 95  1  0
 49 96  1  0
 50 97  1  0
 51 98  1  0
 52 99  1  0
 53100  1  0
 54101  1  0
M  END
> <Name>
RCF2009 - Intermediário - (82)

> <Clean Energy>
RCF2009 - Intermediário - (82)

$$$$
RCF2009 - Intermediário - (83)
  SciTegic12132405553D

101106  0  0  0  0            999 V2000
   -9.4160    3.0790   -4.7539 O   0  0
  -10.5662    3.4327   -3.9532 C   0  0
  -10.8375    2.3434   -2.8823 C   0  0  1  0  0  0
   -9.7787    2.4118   -1.9126 O   0  0
   -9.8517    1.4080   -0.8752 C   0  0  1  0  0  0
   -8.6493    1.4674   -0.0682 O   0  0
  -11.1101    1.6826   -0.0054 C   0  0  2  0  0  0
  -11.1447    0.6591    1.0231 O   0  0
  -12.4026    1.6565   -0.8927 C   0  0  1  0  0  0
  -13.5058    2.1546   -0.0884 O   0  0
  -12.2337    2.5183   -2.1929 C   0  0  2  0  0  0
  -13.3529    2.3762   -3.1024 O   0  0
   -7.5184    1.1624   -0.7889 C   0  0
   -7.0819   -0.1749   -0.9173 C   0  0
   -6.7937    2.1895   -1.4265 C   0  0
   -5.6984    1.8829   -2.2529 C   0  0
   -5.3004    0.5418   -2.4539 C   0  0
   -5.9952   -0.4790   -1.7639 C   0  0
   -7.7360   -1.1783   -0.2548 O   0  0
   -7.1264   -1.4917    1.0114 C   0  0
   -4.1886    0.2140   -3.3875 C   0  0
   -2.7905    0.2487   -2.7150 C   0  0
   -1.6596   -0.1225   -3.7092 C   0  0
   -0.4127   -0.0981   -3.0976 N   0  0
    0.5736   -0.3379   -3.6700 N   0  0
    1.5544   -0.5770   -4.2445 N   0  0
   -9.1881    3.9689   -5.8653 C   0  0
   -8.0223    3.5224   -6.6689 C   0  0
  -13.4219    1.2198   -3.9652 C   0  0
  -14.8113    1.1816   -4.6009 C   0  0
  -14.8371    1.7101   -0.4342 C   0  0
  -15.8117    2.2045    0.5716 C   0  0
  -11.7000    1.0542    2.2939 C   0  0
  -11.6955   -0.0787    3.2546 C   0  0
   -5.8143    2.8126   -8.3017 C   0  0
   -5.6162    3.5896   -7.1468 C   0  0
   -6.7108    3.9321   -6.3296 C   0  0
   -8.2004    2.7142   -7.8180 C   0  0
   -7.1063    2.3693   -8.6340 C   0  0
  -17.4101    0.8975   -5.7713 C   0  0
  -16.7450    2.1261   -5.9267 C   0  0
  -15.4372    2.2549   -5.3341 C   0  0
  -15.5572   -0.0160   -4.4788 C   0  0
  -16.8282   -0.1626   -5.0587 C   0  0
  -16.5895    1.3141    1.3518 C   0  0
  -17.5270    1.8012    2.2821 C   0  0
  -17.6958    3.1874    2.4484 C   0  0
  -16.9327    4.0850    1.6817 C   0  0
  -15.9993    3.5972    0.7484 C   0  0
  -11.0348    0.0200    4.5033 C   0  0
  -11.0766   -1.0413    5.4259 C   0  0
  -11.7706   -2.2218    5.1098 C   0  0
  -12.4245   -2.3398    3.8711 C   0  0
  -12.3919   -1.2739    2.9518 C   0  0
  -10.2841    4.3481   -3.4331 H   0  0
  -11.4083    3.4364   -4.6453 H   0  0
  -10.7880    1.3472   -3.3220 H   0  0
   -9.8643    0.4246   -1.3454 H   0  0
  -11.0606    2.6365    0.5195 H   0  0
  -12.6657    0.6385   -1.1802 H   0  0
  -12.3302    3.5708   -1.9262 H   0  0
   -7.0829    3.2301   -1.2792 H   0  0
   -5.1538    2.6910   -2.7413 H   0  0
   -5.6880   -1.5176   -1.8866 H   0  0
   -7.0696   -2.5738    1.1295 H   0  0
   -6.1222   -1.0692    1.0457 H   0  0
   -7.7260   -1.0692    1.8178 H   0  0
   -4.3656   -0.8182   -3.6900 H   0  0
   -4.1982    1.0095   -4.1325 H   0  0
   -2.6158    1.2856   -2.4279 H   0  0
   -2.7976   -0.5333   -1.9557 H   0  0
   -1.7933   -1.1627   -4.0060 H   0  0
   -1.6022    0.6578   -4.4682 H   0  0
  -10.0673    3.8824   -6.5038 H   0  0
   -8.9242    4.9322   -5.4288 H   0  0
  -12.6936    1.3903   -4.7579 H   0  0
  -13.3255    0.3509   -3.3142 H   0  0
  -15.0817    2.1899   -1.3819 H   0  0
  -14.8235    0.6226   -0.3614 H   0  0
  -11.0248    1.8116    2.6922 H   0  0
  -12.7435    1.3023    2.0996 H   0  0
   -4.9680    2.5543   -8.9383 H   0  0
   -4.6134    3.9268   -6.8847 H   0  0
   -6.5414    4.5191   -5.4270 H   0  0
   -9.1949    2.3520   -8.0784 H   0  0
   -7.2596    1.7585   -9.5237 H   0  0
  -18.3977    0.7641   -6.2127 H   0  0
  -17.2193    2.9376   -6.4786 H   0  0
  -14.9021    3.1981   -5.4444 H   0  0
  -15.1391   -0.8531   -3.9196 H   0  0
  -17.3663   -1.1049   -4.9552 H   0  0
  -16.4648    0.2377    1.2345 H   0  0
  -18.1219    1.1051    2.8734 H   0  0
  -18.4180    3.5661    3.1716 H   0  0
  -17.0648    5.1593    1.8108 H   0  0
  -15.4168    4.3039    0.1574 H   0  0
  -10.4859    0.9265    4.7582 H   0  0
  -10.5707   -0.9489    6.3870 H   0  0
  -11.8015   -3.0445    5.8241 H   0  0
  -12.9571   -3.2581    3.6234 H   0  0
  -12.9099   -1.3749    1.9981 H   0  0
  1  2  1  0
  3  2  1  0
  3  4  1  0
  5  4  1  0
  5  6  1  0
  7  5  1  0
  7  8  1  0
  9  7  1  0
  9 10  1  0
 11  9  1  0
 11  3  1  0
 11 12  1  0
  6 13  1  0
 15 16  1  0
 16 17  2  0
 17 18  1  0
 14 18  2  0
 14 13  1  0
 13 15  2  0
 14 19  1  0
 19 20  1  0
 17 21  1  0
 21 22  1  0
 22 23  1  0
 23 24  1  0
 25 26  2  0
 24 25  2  0
  1 27  1  0
 27 28  1  0
 12 29  1  0
 29 30  1  0
 10 31  1  0
 31 32  1  0
  8 33  1  0
 33 34  1  0
 35 36  1  0
 36 37  2  0
 38 39  1  0
 35 39  2  0
 37 28  1  0
 28 38  2  0
 40 41  1  0
 41 42  2  0
 43 44  1  0
 40 44  2  0
 42 30  1  0
 30 43  2  0
 45 46  1  0
 46 47  2  0
 47 48  1  0
 48 49  2  0
 49 32  1  0
 45 32  2  0
 50 51  2  0
 51 52  1  0
 52 53  2  0
 53 54  1  0
 34 50  1  0
 34 54  2  0
  2 55  1  0
  2 56  1  0
  3 57  1  0
  5 58  1  0
  7 59  1  0
  9 60  1  0
 11 61  1  0
 15 62  1  0
 16 63  1  0
 18 64  1  0
 20 65  1  0
 20 66  1  0
 20 67  1  0
 21 68  1  0
 21 69  1  0
 22 70  1  0
 22 71  1  0
 23 72  1  0
 23 73  1  0
 27 74  1  0
 27 75  1  0
 29 76  1  0
 29 77  1  0
 31 78  1  0
 31 79  1  0
 33 80  1  0
 33 81  1  0
 35 82  1  0
 36 83  1  0
 37 84  1  0
 38 85  1  0
 39 86  1  0
 40 87  1  0
 41 88  1  0
 42 89  1  0
 43 90  1  0
 44 91  1  0
 45 92  1  0
 46 93  1  0
 47 94  1  0
 48 95  1  0
 49 96  1  0
 50 97  1  0
 51 98  1  0
 52 99  1  0
 53100  1  0
 54101  1  0
M  END
> <Name>
RCF2009 - Intermediário - (83)

> <Clean Energy>
RCF2009 - Intermediário - (83)

$$$$
RCF2009 - Intermediário - (84)
  SciTegic12132405553D

101106  0  0  0  0            999 V2000
    4.0984    2.8411   -3.1318 O   0  0
    2.7653    3.2020   -2.6972 C   0  0
    2.3014    2.2570   -1.5581 C   0  0  1  0  0  0
    3.1749    2.4313   -0.4228 O   0  0
    2.9416    1.5304    0.6927 C   0  0  1  0  0  0
    3.8677    1.8467    1.7566 O   0  0
    1.4910    1.7188    1.2221 C   0  0  2  0  0  0
    1.2408    0.8408    2.3553 O   0  0
    0.5073    1.4634    0.0360 C   0  0  1  0  0  0
   -0.8524    1.5638    0.4962 O   0  0
    0.8173    2.4808   -1.1166 C   0  0  1  0  0  0
    0.6500    3.8689   -0.7037 O   0  0
    5.1771    1.6425    1.4086 C   0  0
    5.8056    0.4144    1.7058 C   0  0
    5.9051    2.6621    0.7626 C   0  0
    7.2288    2.4357    0.3498 C   0  0
    7.8539    1.1903    0.5879 C   0  0
    7.1293    0.1893    1.2767 C   0  0
    5.1299   -0.5628    2.3894 O   0  0
    5.3313   -0.4814    3.8133 C   0  0
    9.2412    0.9346    0.1201 C   0  0
   10.3137    1.2568    1.1938 C   0  0
   11.7388    0.9427    0.6755 C   0  0
   12.7636    1.2445    1.6774 N   0  0
    4.5684    3.5644   -4.2903 C   0  0
    5.9656    3.1765   -4.6271 C   0  0
   -0.6929    4.4114   -0.6701 C   0  0
   -0.6916    5.8626   -0.3369 C   0  0
   -1.8706    0.8856   -0.2683 C   0  0
   -3.1754    1.4845    0.1076 C   0  0
    0.4157    1.4141    3.4027 C   0  0
    0.1318    0.4753    4.5162 C   0  0
    8.6301    2.5146   -5.3436 C   0  0
    7.5536    1.8048   -5.9026 C   0  0
    6.2313    2.1305   -5.5448 C   0  0
    7.0628    3.8621   -4.0514 C   0  0
    8.3844    3.5368   -4.4109 C   0  0
   -0.7858    8.6207    0.3360 C   0  0
   -1.1258    8.2012   -0.9605 C   0  0
   -1.0853    6.8335   -1.2918 C   0  0
   -0.3389    6.3054    0.9629 C   0  0
   -0.3896    7.6740    1.2961 C   0  0
   -3.6179    1.4448    1.4521 C   0  0
   -4.8333    2.0490    1.8252 C   0  0
   -5.6255    2.6950    0.8597 C   0  0
   -5.2015    2.7368   -0.4795 C   0  0
   -3.9888    2.1320   -0.8536 C   0  0
    0.3425    0.8529    5.8658 C   0  0
   -0.0069   -0.0167    6.9148 C   0  0
   -0.5620   -1.2771    6.6315 C   0  0
   -0.7685   -1.6686    5.2966 C   0  0
   -0.4279   -0.7956    4.2458 C   0  0
    2.8578    4.2054   -2.2816 H   0  0
    2.1220    3.0263   -3.5594 H   0  0
    2.4139    1.2262   -1.8940 H   0  0
    3.1515    0.5178    0.3484 H   0  0
    1.3292    2.7053    1.6566 H   0  0
    0.5565    0.4388   -0.3323 H   0  0
    0.0934    2.3751   -1.9246 H   0  0
    5.4414    3.6317    0.5810 H   0  0
    7.7741    3.2311   -0.1582 H   0  0
    7.5993   -0.7728    1.4805 H   0  0
    5.3902   -1.4869    4.2300 H   0  0
    6.2592    0.0521    4.0192 H   0  0
    4.4968    0.0521    4.2684 H   0  0
    9.2885   -0.1394   -0.0601 H   0  0
    9.3987    1.6327   -0.7021 H   0  0
   10.2756    2.3343    1.3539 H   0  0
   10.1321    0.5756    2.0251 H   0  0
   11.7971   -0.1349    0.5221 H   0  0
   11.9391    1.6227   -0.1526 H   0  0
   13.3640    0.5096    2.0229 H   0  0
   12.8698    2.1877    2.0229 H   0  0
    3.9391    3.2422   -5.1199 H   0  0
    4.5903    4.6145   -3.9988 H   0  0
   -1.0747    4.3219   -1.6871 H   0  0
   -1.1991    3.9005    0.1489 H   0  0
   -1.6869    1.1219   -1.3163 H   0  0
   -1.8742   -0.1526    0.0638 H   0  0
    1.0079    2.2240    3.8286 H   0  0
   -0.5435    1.6295    2.9318 H   0  0
    9.6529    2.2730   -5.6327 H   0  0
    7.7444    1.0014   -6.6141 H   0  0
    5.4063    1.5681   -5.9819 H   0  0
    6.8874    4.6519   -3.3209 H   0  0
    9.2195    4.0777   -3.9659 H   0  0
   -0.8294    9.6782    0.5965 H   0  0
   -1.4209    8.9365   -1.7090 H   0  0
   -1.3619    6.5227   -2.2993 H   0  0
   -0.0245    5.5835    1.7167 H   0  0
   -0.1211    8.0016    2.3004 H   0  0
   -3.0154    0.9430    2.2093 H   0  0
   -5.1616    2.0167    2.8641 H   0  0
   -6.5668    3.1626    1.1487 H   0  0
   -5.8138    3.2387   -1.2286 H   0  0
   -3.6767    2.1653   -1.8974 H   0  0
    0.7785    1.8241    6.0998 H   0  0
    0.1529    0.2867    7.9494 H   0  0
   -0.8318   -1.9497    7.4456 H   0  0
   -1.1925   -2.6484    5.0765 H   0  0
   -0.5988   -1.1061    3.2151 H   0  0
  1  2  1  0
  3  2  1  0
  3  4  1  0
  5  4  1  0
  5  6  1  0
  7  5  1  0
  7  8  1  0
  9  7  1  0
  9 10  1  0
 11  9  1  0
 11  3  1  0
 11 12  1  0
  6 13  1  0
 15 16  1  0
 16 17  2  0
 17 18  1  0
 14 18  2  0
 14 13  1  0
 13 15  2  0
 14 19  1  0
 19 20  1  0
 17 21  1  0
 21 22  1  0
 22 23  1  0
 23 24  1  0
  1 25  1  0
 25 26  1  0
 12 27  1  0
 27 28  1  0
 10 29  1  0
 29 30  1  0
  8 31  1  0
 31 32  1  0
 33 34  1  0
 34 35  2  0
 36 37  1  0
 33 37  2  0
 35 26  1  0
 26 36  2  0
 38 39  1  0
 39 40  2  0
 41 42  1  0
 38 42  2  0
 40 28  1  0
 28 41  2  0
 43 44  1  0
 44 45  2  0
 45 46  1  0
 46 47  2  0
 47 30  1  0
 43 30  2  0
 48 49  2  0
 49 50  1  0
 50 51  2  0
 51 52  1  0
 32 48  1  0
 32 52  2  0
  2 53  1  0
  2 54  1  0
  3 55  1  0
  5 56  1  0
  7 57  1  0
  9 58  1  0
 11 59  1  0
 15 60  1  0
 16 61  1  0
 18 62  1  0
 20 63  1  0
 20 64  1  0
 20 65  1  0
 21 66  1  0
 21 67  1  0
 22 68  1  0
 22 69  1  0
 23 70  1  0
 23 71  1  0
 24 72  1  0
 24 73  1  0
 25 74  1  0
 25 75  1  0
 27 76  1  0
 27 77  1  0
 29 78  1  0
 29 79  1  0
 31 80  1  0
 31 81  1  0
 33 82  1  0
 34 83  1  0
 35 84  1  0
 36 85  1  0
 37 86  1  0
 38 87  1  0
 39 88  1  0
 40 89  1  0
 41 90  1  0
 42 91  1  0
 43 92  1  0
 44 93  1  0
 45 94  1  0
 46 95  1  0
 47 96  1  0
 48 97  1  0
 49 98  1  0
 50 99  1  0
 51100  1  0
 52101  1  0
M  END
> <Name>
RCF2009 - Intermediário - (84)

> <Clean Energy>
RCF2009 - Intermediário - (84)

$$$$
RCF2009 - Intermediário - (88)
  SciTegic12132405553D

112117  0  0  0  0            999 V2000
    8.5396   -5.6530   -6.5806 O   0  0
    8.5704   -7.0046   -7.0765 C   0  0
    8.4317   -8.0555   -5.9437 C   0  0  1  0  0  0
    9.5641   -7.9735   -5.0496 O   0  0
    9.6442   -9.0267   -4.0511 C   0  0  1  0  0  0
   10.8066   -8.8224   -3.2105 O   0  0
    8.3539   -9.0108   -3.1749 C   0  0  2  0  0  0
    8.4188  -10.0573   -2.1682 O   0  0
    7.1057   -9.1601   -4.1103 C   0  0  1  0  0  0
    5.8921   -9.2154   -3.3371 O   0  0
    7.1003   -7.9664   -5.1294 C   0  0  1  0  0  0
    7.0256   -6.6649   -4.4739 O   0  0
   11.9970   -8.8915   -3.8941 C   0  0
   12.5793   -7.7272   -4.4450 C   0  0
   12.6463  -10.1328   -4.0586 C   0  0
   13.8152  -10.2302   -4.8378 C   0  0
   14.3624   -9.0865   -5.4664 C   0  0
   13.7463   -7.8345   -5.2328 C   0  0
   11.9730   -6.5078   -4.2853 O   0  0
   12.5229   -5.7101   -3.2224 C   0  0
   15.5349   -9.1954   -6.3821 C   0  0
   16.8822   -8.8512   -5.6957 C   0  0
   18.0910   -9.0754   -6.6389 C   0  0
   19.2982   -8.7921   -5.9387 N   0  0
    8.6392   -4.6407   -7.6041 C   0  0
    8.5944   -3.3185   -6.9362 C   0  0
    5.7248   -6.1829   -4.0659 C   0  0
    5.7978   -4.8163   -3.4803 C   0  0
    4.7301   -9.8112   -3.9583 C   0  0
    3.5475   -9.3654   -3.1824 C   0  0
    7.8797   -9.6938   -0.8701 C   0  0
    7.8874  -10.8353    0.0799 C   0  0
    8.5044   -0.8202   -5.6042 C   0  0
    7.3163   -1.4189   -6.0585 C   0  0
    7.3606   -2.6610   -6.7182 C   0  0
    9.7823   -2.7029   -6.4755 C   0  0
    9.7380   -1.4614   -5.8147 C   0  0
    5.8192   -2.2379   -2.2781 C   0  0
    6.5405   -3.2939   -1.6939 C   0  0
    6.5278   -4.5716   -2.2906 C   0  0
    5.1041   -3.7310   -4.0685 C   0  0
    5.1135   -2.4551   -3.4740 C   0  0
    2.5241   -8.5793   -3.7687 C   0  0
    1.4442   -8.1135   -2.9950 C   0  0
    1.3644   -8.4419   -1.6298 C   0  0
    2.3645   -9.2343   -1.0387 C   0  0
    3.4468   -9.6950   -1.8098 C   0  0
    8.4330  -10.7150    1.3831 C   0  0
    8.3964  -11.7987    2.2808 C   0  0
    7.8226  -13.0203    1.8855 C   0  0
    7.2772  -13.1533    0.5965 C   0  0
    7.2999  -12.0656   -0.2947 C   0  0
   20.5506   -9.0574   -6.3939 C   0  0
   20.7448   -9.6154   -7.5014 O   0  0
   21.7063   -8.6543   -5.5680 C   0  0
   21.7283   -9.3335   -4.1735 C   0  0
   22.9184   -8.9154   -3.4068 C   0  0
   24.0610   -9.2957   -3.7529 O   0  0
   22.7985   -8.0907   -2.3370 O   0  0
    7.6874   -7.0875   -7.7102 H   0  0
    9.5644   -7.1185   -7.5091 H   0  0
    8.4803   -9.0406   -6.4077 H   0  0
    9.7977   -9.9667   -4.5813 H   0  0
    8.2741   -8.1053   -2.5734 H   0  0
    7.0838  -10.1208   -4.6247 H   0  0
    6.1997   -7.9798   -5.7434 H   0  0
   12.2414  -11.0242   -3.5795 H   0  0
   14.3005  -11.1991   -4.9553 H   0  0
   14.1796   -6.9342   -5.6686 H   0  0
   12.9238   -6.3637   -2.4476 H   0  0
   13.3214   -5.0810   -3.6159 H   0  0
   11.7405   -5.0810   -2.7980 H   0  0
   15.5848  -10.2484   -6.6593 H   0  0
   15.3712   -8.4374   -7.1481 H   0  0
   16.8534   -7.7817   -5.4872 H   0  0
   16.9982   -9.5628   -4.8782 H   0  0
   18.1415  -10.1369   -6.8815 H   0  0
   18.0414   -8.3356   -7.4379 H   0  0
   19.2625   -8.3591   -5.0269 H   0  0
    9.6251   -4.7481   -8.0562 H   0  0
    7.7444   -4.7290   -8.2203 H   0  0
    5.1391   -6.1021   -4.9817 H   0  0
    5.3993   -6.8504   -3.2680 H   0  0
    4.6513   -9.3837   -4.9579 H   0  0
    4.8219  -10.8900   -3.8326 H   0  0
    8.5617   -8.9464   -0.4648 H   0  0
    6.8340   -9.4401   -1.0440 H   0  0
    8.4692    0.1399   -5.0894 H   0  0
    6.3604   -0.9199   -5.8992 H   0  0
    6.4326   -3.1172   -7.0629 H   0  0
   10.7441   -3.1914   -6.6317 H   0  0
   10.6598   -0.9961   -5.4656 H   0  0
    5.8071   -1.2554   -1.8061 H   0  0
    7.1087   -3.1224   -0.7797 H   0  0
    7.0902   -5.3813   -1.8257 H   0  0
    4.5523   -3.8805   -4.9965 H   0  0
    4.5724   -1.6324   -3.9414 H   0  0
    2.5681   -8.3295   -4.8288 H   0  0
    0.6697   -7.4984   -3.4531 H   0  0
    0.5280   -8.0825   -1.0303 H   0  0
    2.3008   -9.4918    0.0185 H   0  0
    4.2130  -10.3118   -1.3402 H   0  0
    8.8871   -9.7759    1.6993 H   0  0
    8.8125  -11.6919    3.2826 H   0  0
    7.8006  -13.8625    2.5771 H   0  0
    6.8362  -14.1011    0.2876 H   0  0
    6.8580  -12.1771   -1.2849 H   0  0
   22.5805   -9.0152   -6.1099 H   0  0
   21.5732   -7.5859   -5.3978 H   0  0
   20.8719   -8.9568   -3.6144 H   0  0
   21.8451  -10.4051   -4.3352 H   0  0
   22.7089   -8.6145   -1.5376 H   0  0
  1  2  1  0
  3  2  1  0
  3  4  1  0
  5  4  1  0
  5  6  1  0
  7  5  1  0
  7  8  1  0
  9  7  1  0
  9 10  1  0
 11  9  1  0
 11  3  1  0
 11 12  1  0
  6 13  1  0
 15 16  1  0
 16 17  2  0
 17 18  1  0
 14 18  2  0
 14 13  1  0
 13 15  2  0
 14 19  1  0
 19 20  1  0
 17 21  1  0
 21 22  1  0
 22 23  1  0
 23 24  1  0
  1 25  1  0
 25 26  1  0
 12 27  1  0
 27 28  1  0
 10 29  1  0
 29 30  1  0
  8 31  1  0
 31 32  1  0
 33 34  1  0
 34 35  2  0
 36 37  1  0
 33 37  2  0
 35 26  1  0
 26 36  2  0
 38 39  1  0
 39 40  2  0
 41 42  1  0
 38 42  2  0
 40 28  1  0
 28 41  2  0
 43 44  1  0
 44 45  2  0
 45 46  1  0
 46 47  2  0
 47 30  1  0
 43 30  2  0
 48 49  2  0
 49 50  1  0
 50 51  2  0
 51 52  1  0
 32 48  1  0
 32 52  2  0
 24 53  1  0
 53 54  2  0
 53 55  1  0
 55 56  1  0
 56 57  1  0
 57 59  1  0
 57 58  2  0
  2 60  1  0
  2 61  1  0
  3 62  1  0
  5 63  1  0
  7 64  1  0
  9 65  1  0
 11 66  1  0
 15 67  1  0
 16 68  1  0
 18 69  1  0
 20 70  1  0
 20 71  1  0
 20 72  1  0
 21 73  1  0
 21 74  1  0
 22 75  1  0
 22 76  1  0
 23 77  1  0
 23 78  1  0
 24 79  1  0
 25 80  1  0
 25 81  1  0
 27 82  1  0
 27 83  1  0
 29 84  1  0
 29 85  1  0
 31 86  1  0
 31 87  1  0
 33 88  1  0
 34 89  1  0
 35 90  1  0
 36 91  1  0
 37 92  1  0
 38 93  1  0
 39 94  1  0
 40 95  1  0
 41 96  1  0
 42 97  1  0
 43 98  1  0
 44 99  1  0
 45100  1  0
 46101  1  0
 47102  1  0
 48103  1  0
 49104  1  0
 50105  1  0
 51106  1  0
 52107  1  0
 55108  1  0
 55109  1  0
 56110  1  0
 56111  1  0
 59112  1  0
M  END
> <Name>
RCF2009 - Intermediário - (88)

> <Clean Energy>
RCF2009 - Intermediário - (88)

$$$$
RCF2009 - Intermediário - (89)
  SciTegic12132405553D

111116  0  0  0  0            999 V2000
    9.0383   -6.5868   -7.2811 O   0  0
    9.0758   -8.0254   -7.3326 C   0  0
    8.7292   -8.6771   -5.9680 C   0  0  1  0  0  0
    9.7263   -8.3254   -4.9828 O   0  0
    9.6149   -9.0209   -3.7113 C   0  0  1  0  0  0
   10.6549   -8.5691   -2.8091 O   0  0
    8.2158   -8.7352   -3.0840 C   0  0  2  0  0  0
    8.0885   -9.4218   -1.8091 O   0  0
    7.1069   -9.1636   -4.1049 C   0  0  1  0  0  0
    5.7948   -8.9775   -3.5414 O   0  0
    7.3016   -8.3408   -5.4273 C   0  0  1  0  0  0
    7.1957   -6.9008   -5.2169 O   0  0
   11.9256   -8.8461   -3.2539 C   0  0
   12.6337   -7.9081   -4.0392 C   0  0
   12.5329  -10.0785   -2.9348 C   0  0
   13.7944  -10.4117   -3.4643 C   0  0
   14.4779   -9.5171   -4.3217 C   0  0
   13.8942   -8.2533   -4.5739 C   0  0
   12.0685   -6.6980   -4.3496 O   0  0
   12.4991   -5.6127   -3.5098 C   0  0
   15.7619   -9.9033   -4.9755 C   0  0
   17.0131   -9.3660   -4.2332 C   0  0
   18.3314   -9.8704   -4.8726 C   0  0
   19.4392   -9.3867   -4.1197 N   0  0
    9.3289   -5.9381   -8.5368 C   0  0
    9.2518   -4.4746   -8.3166 C   0  0
    5.8742   -6.3155   -5.1733 C   0  0
    5.9273   -4.8351   -5.0265 C   0  0
    4.7060   -9.7342   -4.1182 C   0  0
    3.4475   -9.0704   -3.6997 C   0  0
    7.3887   -8.6764   -0.7784 C   0  0
    7.2085   -9.4707    0.4635 C   0  0
    9.0910   -1.6877   -7.8354 C   0  0
    7.9525   -2.3960   -8.2582 C   0  0
    8.0317   -3.7808   -8.4951 C   0  0
   10.3900   -3.7483   -7.8930 C   0  0
   10.3106   -2.3637   -7.6549 C   0  0
    5.8986   -2.0121   -4.6752 C   0  0
    6.4799   -2.8382   -3.6972 C   0  0
    6.4922   -4.2373   -3.8725 C   0  0
    5.3753   -3.9824   -6.0130 C   0  0
    5.3600   -2.5856   -5.8398 C   0  0
    2.5553   -8.5016   -4.6428 C   0  0
    1.3997   -7.8195   -4.2172 C   0  0
    1.1122   -7.7124   -2.8447 C   0  0
    1.9804   -8.2857   -1.8987 C   0  0
    3.1382   -8.9621   -2.3230 C   0  0
    7.5691   -8.9562    1.7346 C   0  0
    7.3552   -9.7116    2.9031 C   0  0
    6.7868  -10.9949    2.8167 C   0  0
    6.4237  -11.5172    1.5628 C   0  0
    6.6231  -10.7560    0.3972 C   0  0
   20.7297   -9.7803   -4.2808 C   0  0
   21.0524  -10.6519   -5.1245 O   0  0
   21.7744   -9.1440   -3.4538 C   0  0
   21.5670   -9.3618   -1.9320 C   0  0
   22.6548   -8.7294   -1.1601 C   0  0
   23.8159   -9.1987   -1.1999 O   0  0
   22.4233   -7.6157   -0.4218 Cl  0  0
    8.2886   -8.2982   -8.0353 H   0  0
   10.1146   -8.2677   -7.5569 H   0  0
    8.7969   -9.7572   -6.0981 H   0  0
    9.7979  -10.0784   -3.9019 H   0  0
    8.0940   -7.6886   -2.8049 H   0  0
    7.1132  -10.2359   -4.3004 H   0  0
    6.4974   -8.5414   -6.1352 H   0  0
   12.0231  -10.7791   -2.2736 H   0  0
   14.2457  -11.3703   -3.2082 H   0  0
   14.4264   -7.5310   -5.1929 H   0  0
   12.3865   -5.8964   -2.4634 H   0  0
   13.5457   -5.3879   -3.7147 H   0  0
   11.8912   -4.7315   -3.7147 H   0  0
   15.8013  -10.9905   -4.9090 H   0  0
   15.7439   -9.4172   -5.9510 H   0  0
   17.0050   -8.2842   -4.3662 H   0  0
   16.9788   -9.7921   -3.2305 H   0  0
   18.3661  -10.9551   -4.7708 H   0  0
   18.4300   -9.4119   -5.8565 H   0  0
   19.2950   -8.6945   -3.3985 H   0  0
   10.3628   -6.1802   -8.7827 H   0  0
    8.5273   -6.2106   -9.2232 H   0  0
    5.4285   -6.5196   -6.1469 H   0  0
    5.4082   -6.7052   -4.2682 H   0  0
    4.7895   -9.6346   -5.2004 H   0  0
    4.7285  -10.7223   -3.6585 H   0  0
    8.0406   -7.8412   -0.5223 H   0  0
    6.3911   -8.4874   -1.1749 H   0  0
    9.0281   -0.6158   -7.6479 H   0  0
    7.0080   -1.8713   -8.4024 H   0  0
    7.1415   -4.3199   -8.8193 H   0  0
   11.3403   -4.2621   -7.7483 H   0  0
   11.1944   -1.8145   -7.3303 H   0  0
    5.8658   -0.9321   -4.5312 H   0  0
    6.9203   -2.3945   -2.8043 H   0  0
    6.9446   -4.8656   -3.1052 H   0  0
    4.9541   -4.4095   -6.9232 H   0  0
    4.9295   -1.9459   -6.6102 H   0  0
    2.7605   -8.5897   -5.7097 H   0  0
    0.7274   -7.3743   -4.9506 H   0  0
    0.2171   -7.1854   -2.5144 H   0  0
    1.7557   -8.2058   -0.8351 H   0  0
    3.8006   -9.4055   -1.5796 H   0  0
    8.0173   -7.9658    1.8146 H   0  0
    7.6298   -9.3024    3.8754 H   0  0
    6.6278  -11.5839    3.7200 H   0  0
    5.9872  -12.5136    1.4943 H   0  0
    6.3211  -11.1660   -0.5666 H   0  0
   22.6987   -9.6547   -3.7238 H   0  0
   21.6686   -8.0749   -3.6380 H   0  0
   20.6586   -8.8307   -1.6479 H   0  0
   21.6553  -10.4313   -1.7412 H   0  0
  1  2  1  0
  3  2  1  0
  3  4  1  0
  5  4  1  0
  5  6  1  0
  7  5  1  0
  7  8  1  0
  9  7  1  0
  9 10  1  0
 11  9  1  0
 11  3  1  0
 11 12  1  0
  6 13  1  0
 15 16  1  0
 16 17  2  0
 17 18  1  0
 14 18  2  0
 14 13  1  0
 13 15  2  0
 14 19  1  0
 19 20  1  0
 17 21  1  0
 21 22  1  0
 22 23  1  0
 23 24  1  0
  1 25  1  0
 25 26  1  0
 12 27  1  0
 27 28  1  0
 10 29  1  0
 29 30  1  0
  8 31  1  0
 31 32  1  0
 33 34  1  0
 34 35  2  0
 36 37  1  0
 33 37  2  0
 35 26  1  0
 26 36  2  0
 38 39  1  0
 39 40  2  0
 41 42  1  0
 38 42  2  0
 40 28  1  0
 28 41  2  0
 43 44  1  0
 44 45  2  0
 45 46  1  0
 46 47  2  0
 47 30  1  0
 43 30  2  0
 48 49  2  0
 49 50  1  0
 50 51  2  0
 51 52  1  0
 32 48  1  0
 32 52  2  0
 24 53  1  0
 53 54  2  0
 53 55  1  0
 55 56  1  0
 56 57  1  0
 57 59  1  0
 57 58  2  0
  2 60  1  0
  2 61  1  0
  3 62  1  0
  5 63  1  0
  7 64  1  0
  9 65  1  0
 11 66  1  0
 15 67  1  0
 16 68  1  0
 18 69  1  0
 20 70  1  0
 20 71  1  0
 20 72  1  0
 21 73  1  0
 21 74  1  0
 22 75  1  0
 22 76  1  0
 23 77  1  0
 23 78  1  0
 24 79  1  0
 25 80  1  0
 25 81  1  0
 27 82  1  0
 27 83  1  0
 29 84  1  0
 29 85  1  0
 31 86  1  0
 31 87  1  0
 33 88  1  0
 34 89  1  0
 35 90  1  0
 36 91  1  0
 37 92  1  0
 38 93  1  0
 39 94  1  0
 40 95  1  0
 41 96  1  0
 42 97  1  0
 43 98  1  0
 44 99  1  0
 45100  1  0
 46101  1  0
 47102  1  0
 48103  1  0
 49104  1  0
 50105  1  0
 51106  1  0
 52107  1  0
 55108  1  0
 55109  1  0
 56110  1  0
 56111  1  0
M  END
> <Name>
RCF2009 - Intermediário - (89)

> <Clean Energy>
RCF2009 - Intermediário - (89)

$$$$
RCF2009 - Produto - (11)
  SciTegic12132405553D

 98101  0  0  0  0            999 V2000
  -11.2400    5.3552    0.7231 O   0  0
  -12.6212    5.0072    0.7030 C   0  0
  -13.0196    4.5198   -0.7102 C   0  0  1  0  0  0
  -12.2273    3.3496   -1.0052 O   0  0
  -12.3694    2.8468   -2.3542 C   0  0  1  0  0  0
  -11.5266    1.6827   -2.5228 O   0  0
  -13.8479    2.4462   -2.6176 C   0  0  2  0  0  0
  -14.0135    2.0389   -3.9747 O   0  0
  -14.8119    3.6193   -2.2833 C   0  0  1  0  0  0
  -16.1705    3.1947   -2.4006 O   0  0
  -14.5376    4.2001   -0.8670 C   0  0  1  0  0  0
  -14.9700    3.2692    0.1266 O   0  0
  -10.1836    1.9523   -2.4112 C   0  0
   -9.4512    2.3942   -3.5318 C   0  0
   -9.5213    1.7842   -1.1774 C   0  0
   -8.1549    2.1070   -1.0555 C   0  0
   -7.4202    2.5945   -2.1638 C   0  0
   -8.0851    2.7136   -3.4078 C   0  0
   -5.9907    2.9956   -2.0248 C   0  0
   -5.0016    1.8239   -2.2715 C   0  0
   -3.5852    2.2596   -2.2245 C   0  0
   -2.8765    2.1756   -3.2556 O   0  0
   -3.0724    2.7363   -1.0584 N   0  0
   -0.1352    4.1378    0.9513 C   0  0
    0.0027    4.6407    2.4143 C   0  0
    1.3080    4.3972    2.9391 N   0  0
    1.7631    4.8731    4.1295 C   0  0
    1.0835    5.6697    4.8208 O   0  0
    3.0726    4.4202    4.6421 C   0  0
    4.2511    5.2824    4.1118 C   0  0
   10.3585    5.4949    2.2648 O   0  0
   11.5828    4.8417    2.5940 C   0  0
   11.6047    4.6085    4.1232 C   0  0  1  0  0  0
   10.4689    3.7815    4.4399 O   0  0
   10.2287    3.5999    5.8526 C   0  0  1  0  0  0
    9.0226    2.8253    6.0196 O   0  0
   11.4409    2.8625    6.4857 C   0  0  2  0  0  0
   11.2555    2.7220    7.8942 O   0  0
   12.7582    3.6358    6.1841 C   0  0  1  0  0  0
   13.8920    2.9136    6.6698 O   0  0
   12.9085    3.9473    4.6648 C   0  0  1  0  0  0
   13.2057    2.7432    3.9555 O   0  0
    7.9077    3.4658    5.5362 C   0  0
    7.4686    3.2346    4.2158 C   0  0
    7.1833    4.3500    6.3611 C   0  0
    6.0160    4.9718    5.8824 C   0  0
    5.5498    4.7177    4.5710 C   0  0
    6.3069    3.8645    3.7338 C   0  0
   -1.7470    3.2314   -0.8582 C   0  0
   -1.5778    3.6756    0.6151 C   0  0
  -10.9421    5.4303    1.6327 H   0  0
  -12.7149    4.1664    1.3903 H   0  0
  -13.1539    5.9369    0.9033 H   0  0
  -12.7695    5.2856   -1.4445 H   0  0
  -12.0077    3.6251   -3.0261 H   0  0
  -14.1130    1.5601   -2.0408 H   0  0
  -14.0193    1.0802   -4.0227 H   0  0
  -14.7188    4.4072   -3.0307 H   0  0
  -16.5458    3.0774   -1.5248 H   0  0
  -15.1407    5.0862   -0.6693 H   0  0
  -14.8017    3.6316    0.9995 H   0  0
   -9.9438    2.4894   -4.4995 H   0  0
  -10.0676    1.4033   -0.3146 H   0  0
   -7.6605    1.9781   -0.0927 H   0  0
   -7.5361    3.0569   -4.2847 H   0  0
   -5.8192    3.7236   -2.8177 H   0  0
   -5.8759    3.2891   -0.9814 H   0  0
   -5.1628    1.4808   -3.2935 H   0  0
   -5.1163    1.1296   -1.4391 H   0  0
   -3.7225    2.7215   -0.2857 H   0  0
    0.0622    5.0002    0.3146 H   0  0
    0.4922    3.2496    0.8759 H   0  0
   -0.0931    5.7264    2.4033 H   0  0
   -0.6620    4.0412    3.0363 H   0  0
    1.9699    3.8372    2.4209 H   0  0
    3.0252    4.5729    5.7203 H   0  0
    3.2050    3.4162    4.2391 H   0  0
    4.1715    6.2642    4.5787 H   0  0
    4.2553    5.1942    3.0254 H   0  0
    9.8994    5.7398    3.0716 H   0  0
   11.5424    3.8718    2.0982 H   0  0
   12.3721    5.5499    2.3423 H   0  0
   11.4933    5.5647    4.6344 H   0  0
   10.0479    4.5763    6.3020 H   0  0
   11.5011    1.8338    6.1301 H   0  0
   11.2255    1.7898    8.1217 H   0  0
   12.7843    4.5627    6.7571 H   0  0
   13.8864    2.9172    7.6298 H   0  0
   13.7704    4.5838    4.4647 H   0  0
   13.3800    2.0373    4.5824 H   0  0
    8.0302    2.5652    3.5642 H   0  0
    7.5276    4.5540    7.3750 H   0  0
    5.4691    5.6552    6.5320 H   0  0
    5.9915    3.6903    2.7051 H   0  0
   -1.0907    2.3788   -1.0328 H   0  0
   -1.6707    4.1163   -1.4900 H   0  0
   -2.2115    4.5539    0.7376 H   0  0
   -1.7571    2.7857    1.2185 H   0  0
  1  2  1  0
  3  2  1  0
  3  4  1  0
  5  4  1  0
  5  6  1  0
  7  5  1  0
  7  8  1  0
  7  9  1  0
  9 10  1  0
  9 11  1  0
 11  3  1  0
 11 12  1  0
  6 13  1  0
 15 16  1  0
 16 17  2  0
 17 18  1  0
 14 18  2  0
 14 13  1  0
 13 15  2  0
 17 19  1  0
 20 21  1  0
 21 23  1  0
 21 22  2  0
 24 25  1  0
 25 26  1  0
 26 27  1  0
 27 29  1  0
 31 32  1  0
 33 32  1  0
 33 34  1  0
 35 34  1  0
 35 36  1  0
 37 35  1  0
 37 38  1  0
 37 39  1  0
 39 40  1  0
 39 41  1  0
 41 33  1  0
 41 42  1  0
 36 43  1  0
 45 46  1  0
 46 47  2  0
 47 48  1  0
 44 48  2  0
 44 43  1  0
 43 45  2  0
 27 28  2  0
 23 49  1  0
 49 50  1  0
 50 24  1  0
 30 47  1  0
 29 30  1  0
 19 20  1  0
  1 51  1  0
  2 52  1  0
  2 53  1  0
  3 54  1  0
  5 55  1  0
  7 56  1  0
  8 57  1  0
  9 58  1  0
 10 59  1  0
 11 60  1  0
 12 61  1  0
 14 62  1  0
 15 63  1  0
 16 64  1  0
 18 65  1  0
 19 66  1  0
 19 67  1  0
 20 68  1  0
 20 69  1  0
 23 70  1  0
 24 71  1  0
 24 72  1  0
 25 73  1  0
 25 74  1  0
 26 75  1  0
 29 76  1  0
 29 77  1  0
 30 78  1  0
 30 79  1  0
 31 80  1  0
 32 81  1  0
 32 82  1  0
 33 83  1  0
 35 84  1  0
 37 85  1  0
 38 86  1  0
 39 87  1  0
 40 88  1  0
 41 89  1  0
 42 90  1  0
 44 91  1  0
 45 92  1  0
 46 93  1  0
 48 94  1  0
 49 95  1  0
 49 96  1  0
 50 97  1  0
 50 98  1  0
M  END
> <Name>
RCF2009 - Produto - (11)

> <Clean Energy>
RCF2009 - Produto - (11)

$$$$
RCF2009 - Produto - (21)
  SciTegic12132405553D

106109  0  0  0  0            999 V2000
  -14.3157    9.4117   -2.5101 O   0  0
  -15.5648   10.0280   -2.2113 C   0  0
  -16.3461    9.1590   -1.1965 C   0  0  1  0  0  0
  -15.5558    9.0684    0.0059 O   0  0
  -16.0749    8.1702    1.0141 C   0  0  1  0  0  0
  -15.1833    8.1500    2.1509 O   0  0
  -17.4776    8.6542    1.4734 C   0  0  2  0  0  0
  -18.0375    7.7332    2.4079 O   0  0
  -18.4249    8.8349    0.2510 C   0  0  1  0  0  0
  -19.6745    9.3971    0.6559 O   0  0
  -17.7657    9.7060   -0.8571 C   0  0  1  0  0  0
  -17.6975   11.0615   -0.4137 O   0  0
  -13.9239    7.6988    1.8416 C   0  0
  -12.9026    8.6125    1.4998 C   0  0
  -13.6409    6.3191    1.8674 C   0  0
  -12.3571    5.8495    1.5389 C   0  0
  -11.3317    6.7528    1.1714 C   0  0
  -11.6258    8.1340    1.1436 C   0  0
   -9.9652    6.2686    0.8387 C   0  0
   -9.0266    6.3150    2.0758 C   0  0
   -7.6475    5.8814    1.7625 C   0  0
   -6.6959    6.6761    1.9533 O   0  0
   -7.4377    4.6278    1.2775 N   0  0
   -4.9797    2.1305   -0.2684 C   0  0
   -5.1625    0.7575   -0.9682 C   0  0
   -4.0820    0.4452   -1.8480 N   0  0
   -3.9296   -0.7699   -2.4414 C   0  0
   -4.6549   -1.7455   -2.1299 O   0  0
   -2.9508   -0.9276   -3.5297 C   0  0
   -1.5037   -1.2096   -3.0417 C   0  0
   -3.6325   -2.0888   -8.7673 O   0  0
   -2.8773   -2.1852  -10.0729 C   0  0
   -1.6110   -1.2541  -10.1653 C   0  0  1  0  0  0
   -0.6844   -1.6614   -9.1353 O   0  0
    0.4763   -0.8070   -8.9810 C   0  0  1  0  0  0
    1.3465   -1.3245   -7.9467 O   0  0
    1.2805   -0.7586  -10.3100 C   0  0  2  0  0  0
    2.3560    0.1722  -10.2054 O   0  0
    0.3647   -0.3787  -11.5088 C   0  0  1  0  0  0
    1.0805   -0.4739  -12.7401 O   0  0
   -0.9093   -1.2653  -11.5575 C   0  0  1  0  0  0
   -0.5603   -2.5947  -11.9473 O   0  0
    0.7652   -1.3441   -6.7046 C   0  0
    0.0873   -2.4975   -6.2529 C   0  0
    0.8349   -0.2077   -5.8749 C   0  0
    0.1563   -0.1837   -4.6441 C   0  0
   -0.6095   -1.2959   -4.2274 C   0  0
   -0.5984   -2.4651   -5.0222 C   0  0
   -6.1616    4.0803    0.9387 C   0  0
   -6.3364    2.7498    0.1677 C   0  0
    0.0302   -3.6172   -7.0386 O   0  0
    1.0747   -4.5661   -6.7647 C   0  0
  -13.1533    9.9586    1.4701 O   0  0
  -12.8018   10.6226    2.6954 C   0  0
  -13.8649    9.1892   -1.6922 H   0  0
  -15.3111   10.9706   -1.7263 H   0  0
  -16.1161   10.0301   -3.1516 H   0  0
  -16.4617    8.1518   -1.5969 H   0  0
  -16.0808    7.1694    0.5822 H   0  0
  -17.3985    9.5822    2.0397 H   0  0
  -17.8551    8.0332    3.3013 H   0  0
  -18.7024    7.8611   -0.1525 H   0  0
  -19.7205    9.4178    1.6146 H   0  0
  -18.3803    9.7525   -1.7561 H   0  0
  -17.6963   11.0846    0.5460 H   0  0
  -14.4211    5.6097    2.1435 H   0  0
  -12.1555    4.7788    1.5695 H   0  0
  -10.8544    8.8426    0.8421 H   0  0
  -10.0852    5.2200    0.5663 H   0  0
   -9.5726    6.9791    0.1113 H   0  0
   -9.4017    5.5801    2.7880 H   0  0
   -8.9369    7.3612    2.3685 H   0  0
   -8.2743    4.0738    1.1626 H   0  0
   -4.4260    1.9325    0.6494 H   0  0
   -4.5658    2.8022   -1.0205 H   0  0
   -5.1213   -0.0136   -0.1988 H   0  0
   -6.0335    0.8318   -1.6192 H   0  0
   -3.3751    1.1328   -2.0662 H   0  0
   -3.2791   -1.8142   -4.0722 H   0  0
   -2.9321    0.0410   -4.0291 H   0  0
   -1.1713   -0.3415   -2.4726 H   0  0
   -1.4961   -2.1980   -2.5823 H   0  0
   -3.8213   -2.9716   -8.4409 H   0  0
   -2.5102   -3.2109  -10.1089 H   0  0
   -3.5780   -1.8303  -10.8286 H   0  0
   -1.8883   -0.2204   -9.9588 H   0  0
    0.1004    0.1619   -8.6525 H   0  0
    1.7695   -1.7163  -10.4881 H   0  0
    2.5471    0.3376   -9.2792 H   0  0
    0.0881    0.6737  -11.4461 H   0  0
    1.2107   -1.3983  -12.9639 H   0  0
   -1.5958   -0.9435  -12.3406 H   0  0
   -0.4194   -3.1313  -11.1639 H   0  0
    1.4178    0.6588   -6.1872 H   0  0
    0.2242    0.7006   -4.0105 H   0  0
   -1.1267   -3.3553   -4.6810 H   0  0
   -5.7108    4.8052    0.2610 H   0  0
   -5.6847    3.8562    1.8929 H   0  0
   -6.7776    2.0475    0.8751 H   0  0
   -6.8650    3.0016   -0.7517 H   0  0
    1.1937   -4.6742   -5.6866 H   0  0
    0.8127   -5.5305   -7.1999 H   0  0
    2.0096   -4.2130   -7.1999 H   0  0
  -12.5820    9.8790    3.4615 H   0  0
  -11.9229   11.2461    2.5316 H   0  0
  -13.6338   11.2461    3.0224 H   0  0
  1  2  1  0
  3  2  1  0
  3  4  1  0
  5  4  1  0
  5  6  1  0
  7  5  1  0
  7  8  1  0
  7  9  1  0
  9 10  1  0
  9 11  1  0
 11  3  1  0
 11 12  1  0
  6 13  1  0
 15 16  1  0
 16 17  2  0
 17 18  1  0
 14 18  2  0
 14 13  1  0
 13 15  2  0
 17 19  1  0
 20 21  1  0
 21 23  1  0
 21 22  2  0
 19 20  1  0
 24 25  1  0
 25 26  1  0
 26 27  1  0
 27 29  1  0
 29 30  1  0
 31 32  1  0
 33 32  1  0
 33 34  1  0
 35 34  1  0
 35 36  1  0
 37 35  1  0
 37 38  1  0
 37 39  1  0
 39 40  1  0
 39 41  1  0
 41 33  1  0
 41 42  1  0
 36 43  1  0
 45 46  1  0
 46 47  2  0
 47 48  1  0
 44 48  2  0
 44 43  1  0
 43 45  2  0
 27 28  2  0
 23 49  1  0
 49 50  1  0
 50 24  1  0
 30 47  1  0
 44 51  1  0
 51 52  1  0
 14 53  1  0
 53 54  1  0
  1 55  1  0
  2 56  1  0
  2 57  1  0
  3 58  1  0
  5 59  1  0
  7 60  1  0
  8 61  1  0
  9 62  1  0
 10 63  1  0
 11 64  1  0
 12 65  1  0
 15 66  1  0
 16 67  1  0
 18 68  1  0
 19 69  1  0
 19 70  1  0
 20 71  1  0
 20 72  1  0
 23 73  1  0
 24 74  1  0
 24 75  1  0
 25 76  1  0
 25 77  1  0
 26 78  1  0
 29 79  1  0
 29 80  1  0
 30 81  1  0
 30 82  1  0
 31 83  1  0
 32 84  1  0
 32 85  1  0
 33 86  1  0
 35 87  1  0
 37 88  1  0
 38 89  1  0
 39 90  1  0
 40 91  1  0
 41 92  1  0
 42 93  1  0
 45 94  1  0
 46 95  1  0
 48 96  1  0
 49 97  1  0
 49 98  1  0
 50 99  1  0
 50100  1  0
 52101  1  0
 52102  1  0
 52103  1  0
 54104  1  0
 54105  1  0
 54106  1  0
M  END
> <Name>
RCF2009 - Produto - (21)

> <Clean Energy>
RCF2009 - Produto - (21)

$$$$
RCF2009 - Produto - (29)
  SciTegic12132405553D

104107  0  0  0  0            999 V2000
    9.0874  -13.7801    1.6087 O   0  0
    9.3477  -14.1154    0.2493 C   0  0
    8.7020  -15.4797   -0.0890 C   0  0  1  0  0  0
    7.2844  -15.3560    0.1402 O   0  0
    6.5305  -16.5806   -0.0099 C   0  0  1  0  0  0
    5.1446  -16.2979    0.2942 O   0  0
    6.6667  -17.1069   -1.4741 C   0  0  2  0  0  0
    6.0272  -18.3351   -1.6532 N   0  0
    8.1763  -17.2595   -1.8372 C   0  0  1  0  0  0
    8.3412  -17.6351   -3.2060 O   0  0
    8.9733  -15.9563   -1.5472 C   0  0  1  0  0  0
    8.6066  -14.9522   -2.4950 O   0  0
    4.8712  -18.4801   -1.6499 N   0  0
    3.7182  -18.6183   -1.6420 N   0  0
    4.9152  -15.9726    1.6102 C   0  0
    4.5867  -16.9707    2.5536 C   0  0
    4.9719  -14.6285    2.0247 C   0  0
    4.7289  -14.2842    3.3652 C   0  0
    4.4247  -15.2712    4.3357 C   0  0
    4.3691  -16.6211    3.9056 C   0  0
    4.1421  -14.8574    5.6413 C   0  0
    4.1867  -15.6050    6.7635 C   0  0
    3.8119  -15.1474    8.0228 C   0  0
    3.6333  -15.9889    8.9349 O   0  0
    3.6079  -13.8236    8.2747 N   0  0
    1.8286  -11.0447   10.0616 C   0  0
    1.8487   -9.5048    9.8982 C   0  0
    0.7374   -8.9250   10.5732 N   0  0
    0.5016   -7.5899   10.6936 C   0  0
    1.3011   -6.7547   10.2043 O   0  0
   -0.6376   -7.1949   11.3732 C   0  0
   -0.9749   -5.9194   11.6487 C   0  0
   -5.8977   -2.7505    9.7114 O   0  0
   -7.0195   -2.0967   10.2962 C   0  0
   -7.5585   -2.9441   11.4751 C   0  0  1  0  0  0
   -6.4998   -3.0523   12.4542 O   0  0
   -6.7248   -4.0121   13.5157 C   0  0  1  0  0  0
   -5.5414   -4.0265   14.3483 O   0  0
   -7.9340   -3.5013   14.4128 C   0  0  2  0  0  0
   -8.3377   -4.4454   15.3509 N   0  0
   -9.1958   -3.2193   13.4054 C   0  0  1  0  0  0
  -10.3357   -2.5761   14.0343 O   0  0
   -8.8424   -2.3545   12.1292 C   0  0  1  0  0  0
   -8.6349   -1.0000   12.5267 O   0  0
   -7.7438   -4.7179   16.3141 N   0  0
   -7.1564   -4.9953   17.2771 N   0  0
   -4.4201   -4.5018   13.7151 C   0  0
   -4.1429   -5.8839   13.7027 C   0  0
   -3.5300   -3.6135   13.0819 C   0  0
   -2.3949   -4.1019   12.4109 C   0  0
   -2.1145   -5.4909   12.3470 C   0  0
   -3.0151   -6.3657   13.0092 C   0  0
    3.0468  -13.2629    9.4595 C   0  0
    3.0257  -11.7132    9.3395 C   0  0
    4.4870  -18.2761    2.1477 O   0  0
    3.1235  -18.7006    1.9613 C   0  0
   -4.9833   -6.7604   14.3371 O   0  0
   -4.5018   -7.1535   15.6346 C   0  0
    8.9888  -14.5844    2.1234 H   0  0
    8.8431  -13.3472   -0.3367 H   0  0
   10.4300  -14.2274    0.1843 H   0  0
    9.0816  -16.2466    0.5862 H   0  0
    6.8925  -17.2970    0.7275 H   0  0
    6.1171  -16.4669   -2.1644 H   0  0
    8.6006  -18.0965   -1.2827 H   0  0
    8.3497  -18.5925   -3.2763 H   0  0
   10.0427  -16.0887   -1.7115 H   0  0
    8.3185  -14.1632   -2.0301 H   0  0
    5.2059  -13.8474    1.3014 H   0  0
    4.7770  -13.2350    3.6567 H   0  0
    4.1544  -17.4069    4.6299 H   0  0
    3.8498  -13.8202    5.8050 H   0  0
    4.5430  -16.6285    6.6472 H   0  0
    3.8948  -13.2104    7.5252 H   0  0
    1.9642  -11.2411   11.1252 H   0  0
    0.9302  -11.3945    9.5531 H   0  0
    2.7278   -9.1211   10.4159 H   0  0
    1.6931   -9.2744    8.8442 H   0  0
    0.0480   -9.5200   11.0100 H   0  0
   -1.3327   -7.9580   11.7235 H   0  0
   -0.2701   -5.1754   11.2772 H   0  0
   -5.3245   -3.0846   10.4053 H   0  0
   -6.6291   -1.1624   10.6996 H   0  0
   -7.7799   -2.0777    9.5155 H   0  0
   -7.7962   -3.9507   11.1309 H   0  0
   -6.8593   -4.9951   13.0645 H   0  0
   -7.6205   -2.6956   15.0767 H   0  0
   -9.5757   -4.1995   13.1175 H   0  0
  -10.2456   -2.6270   14.9887 H   0  0
   -9.6525   -2.2834   11.4034 H   0  0
   -8.6266   -0.9455   13.4851 H   0  0
   -3.7209   -2.5408   13.1114 H   0  0
   -1.7208   -3.3917   11.9320 H   0  0
   -2.8352   -7.4404   12.9844 H   0  0
    2.0163  -13.6173    9.4846 H   0  0
    3.7359  -13.5339   10.2594 H   0  0
    3.9180  -11.3616    9.8574 H   0  0
    2.8902  -11.4978    8.2796 H   0  0
    2.6525  -18.8472    2.9333 H   0  0
    2.5785  -17.9381    1.4048 H   0  0
    3.1075  -19.6376    1.4048 H   0  0
   -4.4779   -8.2414   15.6989 H   0  0
   -3.4970   -6.7586   15.7842 H   0  0
   -5.1657   -6.7586   16.4035 H   0  0
  1  2  1  0
  3  2  1  0
  3  4  1  0
  5  4  1  0
  5  6  1  0
  7  5  1  0
  7  8  1  0
  7  9  1  0
  9 10  1  0
  9 11  1  0
 11  3  1  0
 11 12  1  0
  6 15  1  0
 17 18  1  0
 18 19  2  0
 19 20  1  0
 16 20  2  0
 16 15  1  0
 15 17  2  0
 19 21  1  0
 22 23  1  0
 23 25  1  0
 23 24  2  0
 26 27  1  0
 27 28  1  0
 28 29  1  0
 29 31  1  0
 33 34  1  0
 35 34  1  0
 35 36  1  0
 37 36  1  0
 37 38  1  0
 39 37  1  0
 39 40  1  0
 39 41  1  0
 41 42  1  0
 41 43  1  0
 43 35  1  0
 43 44  1  0
 45 46  2  0
 38 47  1  0
 49 50  1  0
 50 51  2  0
 51 52  1  0
 48 52  2  0
 48 47  1  0
 47 49  2  0
 29 30  2  0
 25 53  1  0
 53 54  1  0
 54 26  1  0
 32 51  1  0
 13 14  2  0
  8 13  2  0
 40 45  2  0
 16 55  1  0
 55 56  1  0
 48 57  1  0
 57 58  1  0
 31 32  2  0
 21 22  2  0
  1 59  1  0
  2 60  1  0
  2 61  1  0
  3 62  1  0
  5 63  1  0
  7 64  1  0
  9 65  1  0
 10 66  1  0
 11 67  1  0
 12 68  1  0
 17 69  1  0
 18 70  1  0
 20 71  1  0
 21 72  1  0
 22 73  1  0
 25 74  1  0
 26 75  1  0
 26 76  1  0
 27 77  1  0
 27 78  1  0
 28 79  1  0
 31 80  1  0
 32 81  1  0
 33 82  1  0
 34 83  1  0
 34 84  1  0
 35 85  1  0
 37 86  1  0
 39 87  1  0
 41 88  1  0
 42 89  1  0
 43 90  1  0
 44 91  1  0
 49 92  1  0
 50 93  1  0
 52 94  1  0
 53 95  1  0
 53 96  1  0
 54 97  1  0
 54 98  1  0
 56 99  1  0
 56100  1  0
 56101  1  0
 58102  1  0
 58103  1  0
 58104  1  0
M  END
> <Name>
RCF2009 - Produto - (29)

> <Clean Energy>
RCF2009 - Produto - (29)

$$$$
RCF2009 - Produto - (32)
  SciTegic12132405553D

 45 46  0  0  0  0            999 V2000
   -5.5250   -3.6920   -2.1695 O   0  0
   -6.7779   -3.3949   -1.5587 C   0  0
   -7.0604   -4.3447   -0.3625 C   0  0  1  0  0  0
   -6.0030   -4.1801    0.6064 O   0  0
   -6.0594   -5.0829    1.7401 C   0  0  1  0  0  0
   -4.9455   -4.8450    2.6274 O   0  0
   -7.3789   -4.8699    2.5253 C   0  0  2  0  0  0
   -7.4682   -5.7881    3.6148 O   0  0
   -8.5896   -5.0310    1.5654 C   0  0  1  0  0  0
   -9.8107   -4.7694    2.2549 O   0  0
   -8.4425   -4.1032    0.3240 C   0  0  1  0  0  0
   -8.5717   -2.7441    0.7452 O   0  0
   -3.7418   -5.0522    2.0103 C   0  0
   -3.1597   -6.3348    2.0218 C   0  0
   -3.0933   -3.9906    1.3405 C   0  0
   -1.9197   -4.2481    0.6057 C   0  0
   -1.3389   -5.5382    0.5941 C   0  0
   -1.9680   -6.5772    1.3172 C   0  0
   -0.0570   -5.7733   -0.1187 C   0  0
    1.1440   -5.5165    0.8265 C   0  0
    2.4418   -5.7315    0.1618 C   0  0
    2.7598   -6.8637   -0.2675 O   0  0
    3.3172   -4.7113    0.0032 O   0  0
   -3.6213   -2.7243    1.3530 O   0  0
   -3.1667   -1.9274    2.4627 C   0  0
   -4.8662   -3.8482   -1.4890 H   0  0
   -6.6637   -2.3849   -1.1651 H   0  0
   -7.5198   -3.5983   -2.3309 H   0  0
   -7.0284   -5.3766   -0.7122 H   0  0
   -5.9483   -6.0903    1.3389 H   0  0
   -7.3936   -3.8980    3.0185 H   0  0
   -7.4407   -6.6869    3.2788 H   0  0
   -8.6948   -6.0695    1.2517 H   0  0
   -9.6569   -4.8023    3.2019 H   0  0
   -9.2530   -4.2423   -0.3914 H   0  0
   -8.5754   -2.7053    1.7044 H   0  0
   -3.6336   -7.1433    2.5784 H   0  0
   -1.4559   -3.4403    0.0397 H   0  0
   -1.5298   -7.5752    1.3317 H   0  0
   -0.0061   -6.0830   -1.1625 H   0  0
    1.0813   -5.2104    1.8707 H   0  0
    3.5932   -4.3897    0.8645 H   0  0
   -2.8363   -2.5822    3.2691 H   0  0
   -2.3362   -1.2983    2.1422 H   0  0
   -3.9833   -1.2983    2.8170 H   0  0
  1  2  1  0
  3  2  1  0
  3  4  1  0
  4  5  1  0
  5  6  1  0
  5  7  1  0
  7  8  1  0
  7  9  1  0
  9 10  1  0
  9 11  1  0
  3 11  1  0
 11 12  1  0
  6 13  1  0
 15 16  1  0
 16 17  2  0
 17 18  1  0
 14 18  2  0
 14 13  1  0
 13 15  2  0
 17 19  1  0
 20 21  1  0
 21 23  1  0
 21 22  2  0
 15 24  1  0
 24 25  1  0
 19 20  2  0
  1 26  1  0
  2 27  1  0
  2 28  1  0
  3 29  1  0
  5 30  1  0
  7 31  1  0
  8 32  1  0
  9 33  1  0
 10 34  1  0
 11 35  1  0
 12 36  1  0
 14 37  1  0
 16 38  1  0
 18 39  1  0
 19 40  1  0
 20 41  1  0
 23 42  1  0
 25 43  1  0
 25 44  1  0
 25 45  1  0
M  END
> <Name>
RCF2009 - Produto - (32)

> <Clean Energy>
RCF2009 - Produto - (32)

$$$$
RCF2009 - Produto - (33)
  SciTegic12132405553D

 46 47  0  0  0  0            999 V2000
   -0.5721    0.4275   -7.2842 O   0  0
   -1.9533    0.7622   -7.2001 C   0  0
   -2.6634   -0.1940   -6.2140 C   0  0  1  0  0  0
   -2.0493   -0.0246   -4.9214 O   0  0
   -2.5091   -0.9397   -3.8998 C   0  0  1  0  0  0
   -1.7914   -0.6498   -2.6781 O   0  0
   -4.0430   -0.7800   -3.6675 C   0  0  2  0  0  0
   -4.5429   -1.7397   -2.7870 N   0  0
   -4.7960   -0.9073   -5.0272 C   0  0  1  0  0  0
   -6.1931   -0.6529   -4.8665 O   0  0
   -4.1985    0.0440   -6.1017 C   0  0  1  0  0  0
   -4.4819    1.3982   -5.7443 O   0  0
   -0.4541   -0.9408   -2.7729 C   0  0
    0.4610    0.0687   -3.1214 C   0  0
    0.0145   -2.2511   -2.5372 C   0  0
    1.3731   -2.5553   -2.7489 C   0  0
    2.3122   -1.5586   -3.1260 C   0  0
    1.8216   -0.2385   -3.2942 C   0  0
    3.6821   -1.7980   -3.3301 C   0  0
    4.3280   -2.9719   -3.1820 C   0  0
    5.6882   -3.1480   -3.3733 C   0  0
    6.1981   -4.2807   -3.2086 O   0  0
    6.5163   -2.1333   -3.7253 O   0  0
   -0.8496   -3.2428   -2.1533 O   0  0
   -0.8741   -3.4557   -0.7292 C   0  0
   -4.3116   -1.7736   -1.6454 N   0  0
   -4.0757   -1.8061   -0.5097 N   0  0
   -0.2097    0.3396   -6.3997 H   0  0
   -1.9799    1.7665   -6.7772 H   0  0
   -2.3540    0.5799   -8.1972 H   0  0
   -2.5041   -1.2247   -6.5307 H   0  0
   -2.2456   -1.9480   -4.2192 H   0  0
   -4.2524    0.1490   -3.1371 H   0  0
   -4.7599   -1.9404   -5.3728 H   0  0
   -6.4058   -0.6141   -3.9311 H   0  0
   -4.6795   -0.0773   -7.0723 H   0  0
   -4.4990    1.4798   -4.7879 H   0  0
    0.1145    1.0931   -3.2581 H   0  0
    1.7052   -3.5852   -2.6180 H   0  0
    2.5097    0.5626   -3.5639 H   0  0
    4.3219   -0.9722   -3.6414 H   0  0
    3.7165   -3.8262   -2.8915 H   0  0
    6.8602   -1.7119   -2.9343 H   0  0
   -0.8777   -4.5258   -0.5219 H   0  0
    0.0082   -3.0012   -0.2787 H   0  0
   -1.7715   -3.0012   -0.3093 H   0  0
  1  2  1  0
  3  2  1  0
  3  4  1  0
  4  5  1  0
  5  6  1  0
  5  7  1  0
  7  8  1  0
  7  9  1  0
  9 10  1  0
  9 11  1  0
  3 11  1  0
 11 12  1  0
  6 13  1  0
 15 16  1  0
 16 17  2  0
 17 18  1  0
 14 18  2  0
 14 13  1  0
 13 15  2  0
 17 19  1  0
 20 21  1  0
 21 23  1  0
 21 22  2  0
 15 24  1  0
 24 25  1  0
 19 20  2  0
  8 26  2  0
 26 27  2  0
  1 28  1  0
  2 29  1  0
  2 30  1  0
  3 31  1  0
  5 32  1  0
  7 33  1  0
  9 34  1  0
 10 35  1  0
 11 36  1  0
 12 37  1  0
 14 38  1  0
 16 39  1  0
 18 40  1  0
 19 41  1  0
 20 42  1  0
 23 43  1  0
 25 44  1  0
 25 45  1  0
 25 46  1  0
M  END
> <Name>
RCF2009 - Produto - (33)

> <Clean Energy>
RCF2009 - Produto - (33)

$$$$
RCF2009 - Produto - (34)
  SciTegic12132405553D

 51 52  0  0  0  0            999 V2000
   -1.0685   -3.1142    4.2408 O   0  0
   -2.4375   -2.7360    4.1338 C   0  0
   -3.0464   -2.5600    5.5449 C   0  0  1  0  0  0
   -2.3030   -1.5243    6.2210 O   0  0
   -2.6707   -1.3093    7.6063 C   0  0  1  0  0  0
   -1.8572   -0.2604    8.1784 O   0  0
   -4.1625   -0.8928    7.6955 C   0  0  2  0  0  0
   -4.5527   -0.7383    9.0588 O   0  0
   -5.0575   -1.9433    6.9778 C   0  0  1  0  0  0
   -6.4222   -1.5272    6.9791 O   0  0
   -4.5637   -2.2045    5.5261 C   0  0  1  0  0  0
   -4.8072   -1.0444    4.7281 O   0  0
   -0.5239   -0.5792    8.1721 C   0  0
    0.0326   -1.2943    9.2515 C   0  0
    0.2889   -0.2217    7.0737 C   0  0
    1.6290   -0.6528    7.0298 C   0  0
    2.1907   -1.3896    8.0977 C   0  0
    1.3788   -1.6983    9.2130 C   0  0
    3.6224   -1.7853    8.0724 C   0  0
    4.5000   -0.6638    8.6929 C   0  0
    5.9462   -0.9520    8.6464 C   0  0
    6.7060   -0.1711    8.0240 O   0  0
    6.4363   -2.0400    9.2961 N   0  0
    7.8161   -2.3936    9.3544 C   0  0
    7.9730   -3.8474    9.8396 C   0  0
    9.3493   -4.1877    9.9511 O   0  0
   -0.8265   -3.1810    5.1674 H   0  0
   -2.4281   -1.7618    3.6450 H   0  0
   -2.9315   -3.5814    3.6549 H   0  0
   -2.9214   -3.4801    6.1158 H   0  0
   -2.4415   -2.2314    8.1404 H   0  0
   -4.3188    0.1003    7.2745 H   0  0
   -4.6672   -1.6033    9.4590 H   0  0
   -5.0763   -2.8746    7.5439 H   0  0
   -6.7275   -1.4341    7.8845 H   0  0
   -5.1373   -2.9884    5.0315 H   0  0
   -4.9656   -0.2900    5.3002 H   0  0
   -0.5807   -1.5358   10.1196 H   0  0
   -0.1164    0.3843    6.2633 H   0  0
    2.2388   -0.4134    6.1587 H   0  0
    1.7955   -2.2542   10.0529 H   0  0
    3.7014   -2.6576    8.7212 H   0  0
    3.8906   -1.8637    7.0188 H   0  0
    4.2564   -0.6227    9.7546 H   0  0
    4.3702    0.2207    8.0693 H   0  0
    5.7431   -2.6122    9.7568 H   0  0
    8.1685   -2.3433    8.3241 H   0  0
    8.2480   -1.7383   10.1108 H   0  0
    7.5819   -3.9068   10.8553 H   0  0
    7.5790   -4.5048    9.0646 H   0  0
    9.5901   -4.2472   10.8785 H   0  0
  1  2  1  0
  3  2  1  0
  3  4  1  0
  4  5  1  0
  5  6  1  0
  5  7  1  0
  7  8  1  0
  7  9  1  0
  9 10  1  0
  9 11  1  0
  3 11  1  0
 11 12  1  0
  6 13  1  0
 15 16  1  0
 16 17  2  0
 17 18  1  0
 14 18  2  0
 14 13  1  0
 13 15  2  0
 17 19  1  0
 20 21  1  0
 21 23  1  0
 21 22  2  0
 19 20  1  0
 23 24  1  0
 24 25  1  0
 25 26  1  0
  1 27  1  0
  2 28  1  0
  2 29  1  0
  3 30  1  0
  5 31  1  0
  7 32  1  0
  8 33  1  0
  9 34  1  0
 10 35  1  0
 11 36  1  0
 12 37  1  0
 14 38  1  0
 15 39  1  0
 16 40  1  0
 18 41  1  0
 19 42  1  0
 19 43  1  0
 20 44  1  0
 20 45  1  0
 23 46  1  0
 24 47  1  0
 24 48  1  0
 25 49  1  0
 25 50  1  0
 26 51  1  0
M  END
> <Name>
RCF2009 - Produto - (34)

> <Clean Energy>
RCF2009 - Produto - (34)

$$$$
RCF2009 - Produto - (36)
  SciTegic12132405553D

 55 56  0  0  0  0            999 V2000
   -1.6741   -1.7389    4.4400 O   0  0
   -3.0223   -1.4005    4.7502 C   0  0
   -3.3530   -1.8317    6.1986 C   0  0  1  0  0  0
   -2.4552   -1.1304    7.0843 O   0  0
   -2.5521   -1.5067    8.4806 C   0  0  1  0  0  0
   -1.6042   -0.7487    9.2655 O   0  0
   -3.9833   -1.2170    9.0048 C   0  0  2  0  0  0
   -4.1088   -1.6404   10.3612 O   0  0
   -5.0382   -1.9206    8.1039 C   0  0  1  0  0  0
   -6.3607   -1.5911    8.5256 O   0  0
   -4.8316   -1.5551    6.6061 C   0  0  1  0  0  0
   -5.1693   -0.1815    6.4039 O   0  0
   -0.3093   -0.9885    8.8844 C   0  0
    0.4062   -2.0573    9.4603 C   0  0
    0.3014   -0.1882    7.8936 C   0  0
    1.5913   -0.5152    7.4323 C   0  0
    2.3089   -1.5990    7.9882 C   0  0
    1.7042   -2.3614    9.0136 C   0  0
    3.6937   -1.8977    7.5407 C   0  0
    4.7166   -1.0907    8.3865 C   0  0
    6.1162   -1.2820    7.9607 C   0  0
    6.7802   -0.2888    7.5770 O   0  0
    6.6717   -2.5208    8.0134 N   0  0
    8.0227   -2.8166    7.6675 C   0  0
    8.2055   -4.3357    7.4871 C   0  0
    9.5634   -4.6410    7.1948 O   0  0
   -0.3683    0.8719    7.3438 O   0  0
   -0.1526    2.1054    8.0518 C   0  0
   -1.1799   -1.8628    5.2537 H   0  0
   -3.0625   -0.3123    4.7033 H   0  0
   -3.6309   -1.9982    4.0716 H   0  0
   -3.1635   -2.8987    6.3160 H   0  0
   -2.2671   -2.5568    8.5449 H   0  0
   -4.1729   -0.1449    9.0569 H   0  0
   -4.1122   -2.5997   10.3979 H   0  0
   -4.9912   -3.0012    8.2391 H   0  0
   -6.3977   -1.5819    9.4848 H   0  0
   -5.5187   -2.0932    5.9531 H   0  0
   -5.2755    0.2506    7.2546 H   0  0
   -0.0462   -2.6512   10.2544 H   0  0
    2.0398    0.0779    6.6352 H   0  0
    2.2450   -3.1933    9.4649 H   0  0
    3.8544   -2.9541    7.7558 H   0  0
    3.7598   -1.5342    6.5152 H   0  0
    4.6747   -1.4906    9.3995 H   0  0
    4.5112   -0.0351    8.2083 H   0  0
    6.0520   -3.2554    8.3239 H   0  0
    8.1811   -2.3417    6.6992 H   0  0
    8.6135   -2.5070    8.5295 H   0  0
    8.0061   -4.8144    8.4458 H   0  0
    7.6485   -4.6384    6.6004 H   0  0
   10.0504   -4.7505    8.0149 H   0  0
   -0.1853    1.9187    9.1252 H   0  0
    0.8221    2.5127    7.7833 H   0  0
   -0.9313    2.8194    7.7833 H   0  0
  1  2  1  0
  3  2  1  0
  3  4  1  0
  4  5  1  0
  5  6  1  0
  5  7  1  0
  7  8  1  0
  7  9  1  0
  9 10  1  0
  9 11  1  0
  3 11  1  0
 11 12  1  0
  6 13  1  0
 15 16  1  0
 16 17  2  0
 17 18  1  0
 14 18  2  0
 14 13  1  0
 13 15  2  0
 17 19  1  0
 20 21  1  0
 21 23  1  0
 21 22  2  0
 19 20  1  0
 23 24  1  0
 24 25  1  0
 25 26  1  0
 15 27  1  0
 27 28  1  0
  1 29  1  0
  2 30  1  0
  2 31  1  0
  3 32  1  0
  5 33  1  0
  7 34  1  0
  8 35  1  0
  9 36  1  0
 10 37  1  0
 11 38  1  0
 12 39  1  0
 14 40  1  0
 16 41  1  0
 18 42  1  0
 19 43  1  0
 19 44  1  0
 20 45  1  0
 20 46  1  0
 23 47  1  0
 24 48  1  0
 24 49  1  0
 25 50  1  0
 25 51  1  0
 26 52  1  0
 28 53  1  0
 28 54  1  0
 28 55  1  0
M  END
> <Name>
RCF2009 - Produto - (36)

> <Clean Energy>
RCF2009 - Produto - (36)

$$$$
RCF2009 - Produto - (47)
  SciTegic12132405553D

201208  0  0  0  0            999 V2000
   -3.7529   -0.0255    7.9990 O   0  0
   -4.1045   -0.4655    9.3088 C   0  0
   -3.0975   -1.5245    9.8272 C   0  0  1  0  0  0
   -1.7852   -0.9287    9.8661 O   0  0
   -0.7086   -1.8303   10.2290 C   0  0  1  0  0  0
    0.5560   -1.1348   10.2097 O   0  0
   -0.9449   -2.3869   11.6556 C   0  0  2  0  0  0
    0.0828   -3.3129   12.0068 O   0  0
   -2.3453   -3.0534   11.7296 C   0  0  1  0  0  0
   -2.6139   -3.5107   13.0541 O   0  0
   -3.4519   -2.0728   11.2440 C   0  0  1  0  0  0
   -3.5762   -1.0089   12.1920 O   0  0
    0.8454   -0.6549    8.9641 C   0  0
    0.4186    0.6387    8.5932 C   0  0
    1.5412   -1.4624    8.0438 C   0  0
    1.7632   -1.0027    6.7363 C   0  0
    1.2943    0.2715    6.3428 C   0  0
    0.6157    1.0842    7.2765 C   0  0
    1.5761    0.7961    4.9911 C   0  0
    2.9308    1.5517    5.0092 C   0  0
   -0.2241    1.4521    9.4864 O   0  0
    0.6832    2.2687   10.2471 C   0  0
    3.2150    2.1722    3.7096 C   0  0
    3.3663    3.4144    3.6238 O   0  0
    3.2766    1.3570    2.6316 N   0  0
    3.4170    1.7916    1.2910 C   0  0
    3.8000    0.6392    0.2958 C   0  0
    3.7928    1.3112   -1.1232 C   0  0
    2.8030   -0.5736    0.3109 C   0  0
    5.1871    0.0277    0.7045 C   0  0
   11.6788   -0.2216   -7.0532 O   0  0
   12.2909   -0.9983   -8.0802 C   0  0
   11.8265   -2.4760   -8.0093 C   0  0  1  0  0  0
   10.3951   -2.5151   -8.1775 O   0  0
    9.7915   -3.8253   -8.0266 C   0  0  1  0  0  0
    8.3599   -3.7396   -8.1888 O   0  0
   10.3536   -4.7918   -9.0994 C   0  0  2  0  0  0
    9.8033   -6.0979   -8.9321 O   0  0
   11.9034   -4.8239   -9.0111 C   0  0  1  0  0  0
   12.4472   -5.6535  -10.0367 O   0  0
   12.4927   -3.3856   -9.0874 C   0  0  1  0  0  0
   12.2785   -2.8668  -10.4031 O   0  0
    7.7954   -2.9331   -7.2420 C   0  0
    7.6500   -1.5514   -7.4926 C   0  0
    7.3884   -3.4760   -6.0080 C   0  0
    6.8879   -2.6337   -5.0029 C   0  0
    6.7866   -1.2418   -5.2287 C   0  0
    7.1770   -0.7071   -6.4755 C   0  0
    6.2021   -0.3510   -4.2058 C   0  0
    4.6678   -0.2669   -4.4190 C   0  0
    8.0035   -1.0129   -8.6998 O   0  0
    6.9228   -1.0186   -9.6488 C   0  0
    4.0484    0.6796   -3.4834 C   0  0
    3.4189    1.6739   -3.9172 O   0  0
    4.2117    0.4436   -2.1612 N   0  0
   13.1183    2.2398   -4.9507 O   0  0
   14.2460    3.1090   -5.1872 C   0  0
   13.9465    4.5513   -4.7025 C   0  0  1  0  0  0
   13.6716    4.5152   -3.2878 O   0  0
   13.2706    5.7809   -2.7022 C   0  0  1  0  0  0
   12.9990    5.6202   -1.2933 O   0  0
   14.4045    6.8238   -2.8694 C   0  0  2  0  0  0
   14.0036    8.0874   -2.3399 O   0  0
   14.7843    6.9434   -4.3701 C   0  0  1  0  0  0
   15.8765    7.8462   -4.5404 O   0  0
   15.1176    5.5462   -4.9696 C   0  0  1  0  0  0
   16.3365    5.0748   -4.3881 O   0  0
   11.9737    4.7444   -1.0762 C   0  0
   12.2474    3.3684   -0.9194 C   0  0
   10.6457    5.2117   -1.0396 C   0  0
    9.5863    4.3010   -0.9025 C   0  0
    9.8502    2.9162   -0.7957 C   0  0
   11.1850    2.4570   -0.8121 C   0  0
    8.7514    1.9516   -0.5861 C   0  0
    8.4981    1.7892    0.9357 C   0  0
   13.5338    2.9020   -0.9125 O   0  0
   14.1121    2.8856    0.4044 C   0  0
    7.4751    0.7708    1.2025 C   0  0
    7.7556   -0.2389    1.8919 O   0  0
    6.2519    0.9603    0.6563 N   0  0
   -5.8413    0.5508    5.1809 O   0  0
   -7.2191    0.9150    5.1372 C   0  0
   -7.4704    2.0071    4.0656 C   0  0  1  0  0  0
   -7.0792    1.4859    2.7795 O   0  0
   -7.1526    2.4315    1.6821 C   0  0  1  0  0  0
   -6.7147    1.8106    0.4550 O   0  0
   -8.6136    2.9137    1.4982 C   0  0  2  0  0  0
   -8.6920    3.8813    0.4519 O   0  0
   -9.1428    3.4957    2.8368 C   0  0  1  0  0  0
  -10.5105    3.8814    2.7103 O   0  0
   -8.9570    2.4748    3.9966 C   0  0  1  0  0  0
   -9.8364    1.3669    3.7834 O   0  0
   -5.4145    1.4004    0.5368 C   0  0
   -5.1159    0.1011    1.0016 C   0  0
   -4.3752    2.2838    0.1868 C   0  0
   -3.0374    1.8925    0.3523 C   0  0
   -2.7311    0.6111    0.8649 C   0  0
   -3.7777   -0.2771    1.1942 C   0  0
   -1.3296    0.1603    0.9842 C   0  0
   -0.8968   -0.5170   -0.3426 C   0  0
   -6.1131   -0.7841    1.3089 O   0  0
   -6.5182   -1.5787    0.1806 C   0  0
    0.4613   -1.0656   -0.2454 C   0  0
    0.6592   -2.2925   -0.4152 O   0  0
    1.4597   -0.2039    0.0566 N   0  0
   -3.6015   -0.7877    7.4353 H   0  0
   -4.0128    0.4207    9.9368 H   0  0
   -5.0727   -0.9523    9.1911 H   0  0
   -3.0606   -2.3557    9.1231 H   0  0
   -0.6728   -2.5992    9.4572 H   0  0
   -0.8423   -1.6067   12.4098 H   0  0
    0.1477   -3.3714   12.9628 H   0  0
   -2.3648   -3.9701   11.1402 H   0  0
   -2.6164   -4.4706   13.0668 H   0  0
   -4.4372   -2.5386   11.2315 H   0  0
   -3.5344   -1.3667   13.0819 H   0  0
    1.9082   -2.4440    8.3437 H   0  0
    2.2990   -1.6343    6.0276 H   0  0
    0.2411    2.0634    6.9784 H   0  0
    1.6927   -0.0768    4.3486 H   0  0
    0.7933    1.5254    4.7828 H   0  0
    3.7155    0.8088    5.1522 H   0  0
    2.8311    2.3810    5.7095 H   0  0
    0.5084    2.1114   11.3114 H   0  0
    1.7098    1.9953   10.0031 H   0  0
    0.5190    3.3183   10.0031 H   0  0
    3.2143    0.3704    2.8389 H   0  0
    4.2519    2.4914    1.3284 H   0  0
    2.4210    2.1453    1.0245 H   0  0
    2.7586    1.5435   -1.3770 H   0  0
    4.5443    2.1008   -1.1222 H   0  0
    3.0582   -1.2256   -0.5245 H   0  0
    2.7777   -0.9720    1.3252 H   0  0
    5.1313   -0.2523    1.7564 H   0  0
    5.4569   -0.7171   -0.0442 H   0  0
   11.2890   -0.8063   -6.3991 H   0  0
   11.9191   -0.5739   -9.0128 H   0  0
   13.3572   -0.9705   -7.8557 H   0  0
   12.0524   -2.8734   -7.0198 H   0  0
    9.9881   -4.1427   -7.0025 H   0  0
   10.0242   -4.5116  -10.1000 H   0  0
    9.7211   -6.2930   -7.9957 H   0  0
   12.2246   -5.3178   -8.0940 H   0  0
   12.3227   -6.5759   -9.8017 H   0  0
   13.5761   -3.3784   -8.9684 H   0  0
   12.1779   -3.5942  -11.0215 H   0  0
    7.4609   -4.5491   -5.8307 H   0  0
    6.5783   -3.0597   -4.0486 H   0  0
    7.1127    0.3663   -6.6542 H   0  0
    6.3766   -0.8395   -3.2472 H   0  0
    6.6173    0.6386   -4.3968 H   0  0
    4.2503   -1.2408   -4.1633 H   0  0
    4.4999    0.1549   -5.4099 H   0  0
    5.9717   -1.0236   -9.1164 H   0  0
    6.9842   -0.1282  -10.2747 H   0  0
    6.9935   -1.9082  -10.2747 H   0  0
    4.6712   -0.4274   -1.9370 H   0  0
   12.9858    2.1377   -4.0054 H   0  0
   15.0482    2.7102   -4.5664 H   0  0
   14.3594    3.1400   -6.2708 H   0  0
   13.0478    4.9147   -5.2008 H   0  0
   12.3364    6.0643   -3.1871 H   0  0
   15.2741    6.5678   -2.2642 H   0  0
   14.0153    8.0506   -1.3806 H   0  0
   13.9793    7.4160   -4.9328 H   0  0
   16.2046    8.1174   -3.6800 H   0  0
   15.3281    5.5973   -6.0378 H   0  0
   16.2661    5.1020   -3.4311 H   0  0
   10.4376    6.2788   -1.1173 H   0  0
    8.5605    4.6685   -0.8791 H   0  0
   11.3969    1.3901   -0.7414 H   0  0
    7.8633    2.4088   -1.0223 H   0  0
    9.1144    0.9962   -0.9648 H   0  0
    8.0737    2.7261    1.2964 H   0  0
    9.4151    1.4002    1.3782 H   0  0
   14.2535    1.8539    0.7263 H   0  0
   15.0754    3.3953    0.3845 H   0  0
   13.4456    3.3953    1.1002 H   0  0
    6.1269    1.8460    0.1872 H   0  0
   -5.5589    0.4762    6.0953 H   0  0
   -7.7390    0.0101    4.8227 H   0  0
   -7.4257    1.3503    6.1149 H   0  0
   -6.8364    2.8678    4.2784 H   0  0
   -6.4509    3.2327    1.9139 H   0  0
   -9.2564    2.1099    1.1394 H   0  0
   -8.7553    3.4329   -0.3946 H   0  0
   -8.6397    4.4336    3.0722 H   0  0
  -10.8946    3.9897    3.5835 H   0  0
   -9.2677    2.8839    4.9580 H   0  0
  -10.1170    1.0134    4.6307 H   0  0
   -4.6064    3.2713   -0.2125 H   0  0
   -2.2377    2.5825    0.0833 H   0  0
   -3.5507   -1.2628    1.6003 H   0  0
   -0.7326    1.0644    1.1042 H   0  0
   -1.3249   -0.6031    1.7622 H   0  0
   -0.8395    0.2627   -1.1021 H   0  0
   -1.5462   -1.3791   -0.4945 H   0  0
   -6.4286   -2.6361    0.4299 H   0  0
   -7.5541   -1.3512   -0.0709 H   0  0
   -5.8788   -1.3512   -0.6724 H   0  0
    1.1875    0.7680    0.0942 H   0  0
  1  2  1  0
  3  2  1  0
  3  4  1  0
  5  4  1  0
  5  6  1  0
  7  5  1  0
  7  8  1  0
  7  9  1  0
  9 10  1  0
  9 11  1  0
 11  3  1  0
 11 12  1  0
  6 13  1  0
 15 16  1  0
 16 17  2  0
 17 18  1  0
 14 18  2  0
 14 13  1  0
 13 15  2  0
 17 19  1  0
 14 21  1  0
 21 22  1  0
 20 23  1  0
 23 24  2  0
 19 20  1  0
 23 25  1  0
 26 27  1  0
 27 28  1  0
 27 29  1  0
 27 30  1  0
 31 32  1  0
 33 32  1  0
 33 34  1  0
 35 34  1  0
 35 36  1  0
 37 35  1  0
 37 38  1  0
 37 39  1  0
 39 40  1  0
 39 41  1  0
 41 33  1  0
 41 42  1  0
 36 43  1  0
 45 46  1  0
 46 47  2  0
 47 48  1  0
 44 48  2  0
 44 43  1  0
 43 45  2  0
 47 49  1  0
 44 51  1  0
 51 52  1  0
 50 53  1  0
 53 54  2  0
 49 50  1  0
 53 55  1  0
 56 57  1  0
 58 57  1  0
 58 59  1  0
 60 59  1  0
 60 61  1  0
 62 60  1  0
 62 63  1  0
 62 64  1  0
 64 65  1  0
 64 66  1  0
 66 58  1  0
 66 67  1  0
 61 68  1  0
 70 71  1  0
 71 72  2  0
 72 73  1  0
 69 73  2  0
 69 68  1  0
 68 70  2  0
 72 74  1  0
 69 76  1  0
 76 77  1  0
 75 78  1  0
 78 79  2  0
 74 75  1  0
 78 80  1  0
 81 82  1  0
 83 82  1  0
 83 84  1  0
 85 84  1  0
 85 86  1  0
 87 85  1  0
 87 88  1  0
 87 89  1  0
 89 90  1  0
 89 91  1  0
 91 83  1  0
 91 92  1  0
 86 93  1  0
 95 96  1  0
 96 97  2  0
 97 98  1  0
 94 98  2  0
 94 93  1  0
 93 95  2  0
 97 99  1  0
 94101  1  0
101102  1  0
100103  1  0
103104  2  0
 99100  1  0
103105  1  0
 55 28  1  0
 25 26  1  0
 80 30  1  0
105 29  1  0
  1106  1  0
  2107  1  0
  2108  1  0
  3109  1  0
  5110  1  0
  7111  1  0
  8112  1  0
  9113  1  0
 10114  1  0
 11115  1  0
 12116  1  0
 15117  1  0
 16118  1  0
 18119  1  0
 19120  1  0
 19121  1  0
 20122  1  0
 20123  1  0
 22124  1  0
 22125  1  0
 22126  1  0
 25127  1  0
 26128  1  0
 26129  1  0
 28130  1  0
 28131  1  0
 29132  1  0
 29133  1  0
 30134  1  0
 30135  1  0
 31136  1  0
 32137  1  0
 32138  1  0
 33139  1  0
 35140  1  0
 37141  1  0
 38142  1  0
 39143  1  0
 40144  1  0
 41145  1  0
 42146  1  0
 45147  1  0
 46148  1  0
 48149  1  0
 49150  1  0
 49151  1  0
 50152  1  0
 50153  1  0
 52154  1  0
 52155  1  0
 52156  1  0
 55157  1  0
 56158  1  0
 57159  1  0
 57160  1  0
 58161  1  0
 60162  1  0
 62163  1  0
 63164  1  0
 64165  1  0
 65166  1  0
 66167  1  0
 67168  1  0
 70169  1  0
 71170  1  0
 73171  1  0
 74172  1  0
 74173  1  0
 75174  1  0
 75175  1  0
 77176  1  0
 77177  1  0
 77178  1  0
 80179  1  0
 81180  1  0
 82181  1  0
 82182  1  0
 83183  1  0
 85184  1  0
 87185  1  0
 88186  1  0
 89187  1  0
 90188  1  0
 91189  1  0
 92190  1  0
 95191  1  0
 96192  1  0
 98193  1  0
 99194  1  0
 99195  1  0
100196  1  0
100197  1  0
102198  1  0
102199  1  0
102200  1  0
105201  1  0
M  END
> <Name>
RCF2009 - Produto - (47)

> <Clean Energy>
RCF2009 - Produto - (47)

$$$$
RCF2009 - Produto - (57)
  SciTegic12132405553D

 88 92  0  0  0  0            999 V2000
   -3.2280   -3.7465    0.8036 N   0  0
   -4.3539   -4.1789    1.5694 C   0  0
   -4.1264   -5.5487    2.2745 C   0  0  1  0  0  0
   -2.8068   -5.5784    2.8588 O   0  0
   -2.5038   -6.7378    3.6682 C   0  0  2  0  0  0
   -2.5789   -8.0142    2.9870 O   0  0
   -3.4609   -6.7690    4.8882 C   0  0  1  0  0  0
   -3.2032   -5.5510    5.6289 O   0  0
   -4.9439   -6.8811    4.4101 C   0  0  1  0  0  0
   -5.7912   -6.7190    5.5736 O   0  0
   -5.2717   -5.8152    3.3157 C   0  0  2  0  0  0
   -6.5649   -6.0137    2.6948 O   0  0
   -1.6701   -8.2209    1.9827 C   0  0
   -0.3017   -8.4424    2.2501 C   0  0
   -2.1261   -8.2772    0.6510 C   0  0
   -1.2202   -8.4906   -0.4033 C   0  0
    0.1521   -8.6956   -0.1417 C   0  0
    0.6037   -8.6666    1.1948 C   0  0
    1.0753   -8.8611   -1.1452 O   0  0
    0.9110  -10.0315   -1.9678 C   0  0
   -3.2708   -5.6340    7.0660 C   0  0
   -2.9882   -4.3028    7.6550 C   0  0
   -3.7169   -3.1724    7.2148 C   0  0
   -3.4806   -1.9026    7.7714 C   0  0
   -2.5209   -1.7491    8.7874 C   0  0
   -1.7949   -2.8645    9.2407 C   0  0
   -2.0218   -4.1336    8.6763 C   0  0
   -7.1542   -7.1787    5.4996 C   0  0
   -7.8005   -6.9412    6.8108 C   0  0
   -6.7614   -7.0925    1.7518 C   0  0
   -8.2157   -7.2508    1.5127 C   0  0
   -8.8741   -8.4872    1.7184 C   0  0
  -10.2596   -8.6041    1.5011 C   0  0
  -11.0052   -7.4871    1.0821 C   0  0
  -10.3610   -6.2568    0.8636 C   0  0
   -8.9746   -6.1429    1.0681 C   0  0
   -8.2017   -8.0253    7.6239 C   0  0
   -8.8243   -7.7960    8.8627 C   0  0
   -9.0567   -6.4819    9.3055 C   0  0
   -8.6623   -5.3929    8.5077 C   0  0
   -8.0298   -5.6212    7.2710 C   0  0
   -3.2507   -3.3082   -0.4852 C   0  0
   -4.3047   -3.3167   -1.1682 O   0  0
   -2.0215   -2.7493   -1.0901 C   0  0
   -1.5662   -3.4987   -2.3709 C   0  0
   -0.4093   -2.8432   -3.0163 C   0  0
    0.7298   -3.3620   -2.9828 O   0  0
   -0.5986   -1.3825   -3.8498 Cl  0  0
   -2.3089   -3.7513    1.2222 H   0  0
   -4.4582   -3.4219    2.3467 H   0  0
   -5.1451   -4.3157    0.8323 H   0  0
   -4.0854   -6.3757    1.5657 H   0  0
   -1.4418   -6.6198    3.8836 H   0  0
   -3.2672   -7.5895    5.5791 H   0  0
   -5.1707   -7.8682    4.0071 H   0  0
   -5.4404   -4.8791    3.8481 H   0  0
    0.0586   -8.4404    3.2789 H   0  0
   -3.1874   -8.1548    0.4349 H   0  0
   -1.5842   -8.4972   -1.4307 H   0  0
    1.6606   -8.8185    1.4138 H   0  0
    0.7879  -10.9082   -1.3319 H   0  0
    0.0290   -9.9124   -2.5971 H   0  0
    1.7917  -10.1599   -2.5971 H   0  0
   -4.3039   -5.8821    7.3091 H   0  0
   -2.4639   -6.3002    7.3714 H   0  0
   -4.4713   -3.2814    6.4356 H   0  0
   -4.0409   -1.0379    7.4156 H   0  0
   -2.3400   -0.7664    9.2231 H   0  0
   -1.0544   -2.7450   10.0316 H   0  0
   -1.4469   -4.9888    9.0315 H   0  0
   -7.6559   -6.5451    4.7682 H   0  0
   -7.1099   -8.2571    5.3473 H   0  0
   -6.3100   -6.7708    0.8133 H   0  0
   -6.4110   -8.0010    2.2418 H   0  0
   -8.3082   -9.3586    2.0478 H   0  0
  -10.7562   -9.5616    1.6575 H   0  0
  -12.0806   -7.5749    0.9270 H   0  0
  -10.9363   -5.3910    0.5357 H   0  0
   -8.4841   -5.1878    0.8803 H   0  0
   -8.0291   -9.0491    7.2920 H   0  0
   -9.1280   -8.6400    9.4821 H   0  0
   -9.5418   -6.3076   10.2659 H   0  0
   -8.8466   -4.3737    8.8472 H   0  0
   -7.7155   -4.7707    6.6661 H   0  0
   -2.2920   -1.7385   -1.3957 H   0  0
   -1.2440   -2.9027   -0.3418 H   0  0
   -1.2043   -4.4781   -2.0578 H   0  0
   -2.3794   -3.4234   -3.0927 H   0  0
  1  2  1  0
  3  2  1  0
  3  4  1  0
  5  4  1  0
  5  6  1  0
  7  5  1  0
  7  8  1  0
  7  9  1  0
  9 10  1  0
  9 11  1  0
 11  3  1  0
 11 12  1  0
  6 13  1  0
 15 16  1  0
 16 17  2  0
 17 18  1  0
 14 18  2  0
 14 13  1  0
 13 15  2  0
 17 19  1  0
 19 20  1  0
  8 21  1  0
 21 22  1  0
 23 24  2  0
 24 25  1  0
 25 26  2  0
 26 27  1  0
 22 23  1  0
 22 27  2  0
 10 28  1  0
 28 29  1  0
 12 30  1  0
 30 31  1  0
 32 33  1  0
 33 34  2  0
 34 35  1  0
 35 36  2  0
 36 31  1  0
 32 31  2  0
 37 38  2  0
 38 39  1  0
 39 40  2  0
 40 41  1  0
 29 37  1  0
 29 41  2  0
  1 42  1  0
 42 43  2  0
 42 44  1  0
 44 45  1  0
 45 46  1  0
 46 48  1  0
 46 47  2  0
  1 49  1  0
  2 50  1  0
  2 51  1  0
  3 52  1  0
  5 53  1  0
  7 54  1  0
  9 55  1  0
 11 56  1  0
 14 57  1  0
 15 58  1  0
 16 59  1  0
 18 60  1  0
 20 61  1  0
 20 62  1  0
 20 63  1  0
 21 64  1  0
 21 65  1  0
 23 66  1  0
 24 67  1  0
 25 68  1  0
 26 69  1  0
 27 70  1  0
 28 71  1  0
 28 72  1  0
 30 73  1  0
 30 74  1  0
 32 75  1  0
 33 76  1  0
 34 77  1  0
 35 78  1  0
 36 79  1  0
 37 80  1  0
 38 81  1  0
 39 82  1  0
 40 83  1  0
 41 84  1  0
 44 85  1  0
 44 86  1  0
 45 87  1  0
 45 88  1  0
M  END
> <Name>
RCF2009 - Produto - (57)

> <Clean Energy>
RCF2009 - Produto - (57)

$$$$
RCF2009 - Produto - (59)
  SciTegic12132405553D

209216  0  0  0  0            999 V2000
    5.1453    4.8433   12.8684 N   0  0
    5.5357    4.8134   14.2441 C   0  0
    4.3693    4.4670   15.2361 C   0  0  1  0  0  0
    3.0350    4.5717   14.6785 O   0  0
    2.5334    3.4610   13.8822 C   0  0  2  0  0  0
    1.1459    3.6643   13.5322 O   0  0
    2.6307    2.1253   14.6637 C   0  0  1  0  0  0
    2.2372    1.0298   13.8377 O   0  0
    4.0661    1.9055   15.2118 C   0  0  1  0  0  0
    4.9794    1.6478   14.1447 O   0  0
    4.5343    3.1343   16.0349 C   0  0  2  0  0  0
    3.7656    3.1970   17.2383 O   0  0
    0.8892    4.8777   12.9503 C   0  0
    1.1510    5.1153   11.5845 C   0  0
    0.3417    5.9063   13.7421 C   0  0
    0.0914    7.1722   13.1851 C   0  0
    0.3525    7.4156   11.8186 C   0  0
    0.8858    6.3794   11.0232 C   0  0
    0.1365    8.6450   11.2507 O   0  0
   -1.2485    9.0333   11.1775 C   0  0
    5.8637    4.3708   11.8125 C   0  0
    7.0207    3.9094   11.9637 O   0  0
    5.2824    4.3878   10.4507 C   0  0
    5.0472    2.9479    9.9202 C   0  0
    4.6365    2.9126    8.5037 C   0  0
    5.3914    2.3644    7.6646 O   0  0
    3.4454    3.4678    8.1260 O   0  0
    1.4557    2.9204    6.6866 C   0  0
    1.0393    2.9343    5.1731 C   0  0
    0.4588    3.7673    7.5534 C   0  0
    1.4171    1.4468    7.2198 C   0  0
    2.9013    3.5233    6.7962 C   0  0
    4.7847   -2.9852    3.8517 N   0  0
    5.8234   -3.6243    3.1085 C   0  0
    6.1786   -2.9476    1.7390 C   0  0  1  0  0  0
    5.3529   -1.8197    1.3550 O   0  0
    5.6249   -0.5292    1.9647 C   0  0  2  0  0  0
    4.8549    0.5221    1.3382 O   0  0
    7.1192   -0.1306    1.8166 C   0  0  1  0  0  0
    7.3900    1.0619    2.5533 O   0  0
    8.0713   -1.2739    2.2571 C   0  0  1  0  0  0
    8.0530   -1.4155    3.6775 O   0  0
    7.6944   -2.6103    1.5602 C   0  0  2  0  0  0
    8.0099   -2.5126    0.1705 O   0  0
    3.5305    0.2419    1.1215 C   0  0
    2.5705    0.3067    2.1523 C   0  0
    3.1181   -0.0929   -0.1822 C   0  0
    1.7669   -0.3722   -0.4491 C   0  0
    0.7956   -0.2873    0.5724 C   0  0
    1.2114    0.0485    1.8789 C   0  0
   -0.5284   -0.5770    0.3342 O   0  0
   -1.1943    0.2952   -0.6049 C   0  0
    4.4341   -3.3248    5.1223 C   0  0
    4.9470   -4.3176    5.6933 O   0  0
    3.4711   -2.4861    5.8666 C   0  0
    4.0735   -1.0919    6.1847 C   0  0
    3.2032   -0.3079    7.0752 C   0  0
    3.2772   -0.4851    8.3145 O   0  0
    2.3202    0.5751    6.5249 O   0  0
    0.5358   10.2937    6.6249 N   0  0
    0.5386   11.6239    6.0992 C   0  0
    1.6902   11.9034    5.0690 C   0  0  1  0  0  0
    2.7678   10.9328    5.0704 O   0  0
    2.5777    9.6916    4.3346 C   0  0  2  0  0  0
    3.7968    8.9164    4.3111 O   0  0
    2.1735    9.9713    2.8643 C   0  0  1  0  0  0
    1.8923    8.7524    2.1772 O   0  0
    0.9542   10.9289    2.7972 C   0  0  1  0  0  0
   -0.2234   10.2808    3.2791 O   0  0
    1.2276   12.2215    3.6104 C   0  0  2  0  0  0
    2.2380   12.9792    2.9399 O   0  0
    4.3472    8.7024    5.5467 C   0  0
    3.8622    7.6959    6.4079 C   0  0
    5.4290    9.5063    5.9568 C   0  0
    5.9994    9.3310    7.2295 C   0  0
    5.5165    8.3256    8.0963 C   0  0
    4.4432    7.5113    7.6773 C   0  0
    6.0344    8.1441    9.3533 O   0  0
    7.3954    7.6743    9.3777 C   0  0
   -0.5592    9.5308    6.8967 C   0  0
   -1.7215    9.9829    6.7591 O   0  0
   -0.3930    8.1329    7.3575 C   0  0
   -0.8845    7.1246    6.2849 C   0  0
   -0.8933    5.7281    6.7607 C   0  0
   -1.9863    5.1179    6.8463 O   0  0
    0.2872    5.1145    7.0806 O   0  0
   -4.5659   -0.1809    3.4086 N   0  0
   -5.9162   -0.6315    3.2745 C   0  0
   -6.5445   -1.2058    4.5925 C   0  0  1  0  0  0
   -5.6081   -1.4891    5.6611 O   0  0
   -5.1653   -0.3861    6.4991 C   0  0  2  0  0  0
   -4.3702   -0.8797    7.6007 O   0  0
   -6.3684    0.3890    7.0965 C   0  0  1  0  0  0
   -5.9196    1.5401    7.8087 O   0  0
   -7.3779    0.7982    5.9919 C   0  0  1  0  0  0
   -6.8333    1.8175    5.1520 O   0  0
   -7.7875   -0.4334    5.1403 C   0  0  2  0  0  0
   -8.5699   -1.3102    5.9521 O   0  0
   -3.2931   -1.6314    7.2108 C   0  0
   -2.0630   -1.0246    6.8820 C   0  0
   -3.4134   -3.0344    7.1482 C   0  0
   -2.3315   -3.8214    6.7163 C   0  0
   -1.1018   -3.2160    6.3787 C   0  0
   -0.9746   -1.8139    6.4636 C   0  0
   -0.0407   -3.9561    5.9281 O   0  0
    0.5858   -4.7670    6.9379 C   0  0
   -4.0531    0.9738    2.8995 C   0  0
   -4.7463    1.7346    2.1822 O   0  0
   -2.6599    1.3685    3.2094 C   0  0
   -2.6221    2.6339    4.1048 C   0  0
   -1.2692    3.2014    4.2351 C   0  0
   -1.0241    4.3126    3.7079 O   0  0
   -0.3147    2.5130    4.9295 O   0  0
    4.2555    5.2464   12.6118 H   0  0
    6.2608    4.0011   14.2937 H   0  0
    5.8489    5.8369   14.4505 H   0  0
    4.3720    5.2968   15.9429 H   0  0
    3.1225    3.4773   12.9652 H   0  0
    1.9054    2.1096   15.4772 H   0  0
    1.9719    0.2912   14.3907 H   0  0
    4.1070    0.9987   15.8151 H   0  0
    5.0778    0.6998   14.0297 H   0  0
    5.5720    3.0111   16.3448 H   0  0
    3.5721    2.3068   17.5411 H   0  0
    1.5593    4.3199   10.9610 H   0  0
    0.1105    5.7217   14.7912 H   0  0
   -0.3065    7.9678   13.8150 H   0  0
    1.0942    6.5566    9.9681 H   0  0
   -1.6482    9.1453   12.1853 H   0  0
   -1.3325    9.9811   10.6458 H   0  0
   -1.8130    8.2672   10.6458 H   0  0
    4.3041    4.8566   10.5567 H   0  0
    6.0404    4.8461    9.8155 H   0  0
    6.0101    2.4378    9.9481 H   0  0
    4.1988    2.5412   10.4706 H   0  0
    1.0576    3.9718    4.8395 H   0  0
    1.6452    2.1865    4.6615 H   0  0
   -0.5293    3.3192    7.4489 H   0  0
    0.9020    3.8851    8.5422 H   0  0
    1.7870    1.4566    8.2451 H   0  0
    0.4291    1.0419    7.0006 H   0  0
    3.5666    2.8912    6.2080 H   0  0
    2.8303    4.5893    6.5802 H   0  0
    4.2532   -2.2291    3.4443 H   0  0
    6.6968   -3.5302    3.7537 H   0  0
    5.4127   -4.6095    2.8873 H   0  0
    5.8685   -3.6780    0.9917 H   0  0
    5.2883   -0.6477    2.9947 H   0  0
    7.3309    0.1419    0.7827 H   0  0
    7.3473    0.8738    3.4937 H   0  0
    9.1078   -1.0163    2.0393 H   0  0
    8.0501   -2.3479    3.9061 H   0  0
    8.3071   -3.4266    1.9428 H   0  0
    8.0943   -3.3937   -0.2012 H   0  0
    2.8809    0.5580    3.1665 H   0  0
    3.8492   -0.1361   -0.9896 H   0  0
    1.4693   -0.6576   -1.4581 H   0  0
    0.4775    0.1087    2.6825 H   0  0
   -1.7672    1.0457   -0.0604 H   0  0
   -0.4516    0.7891   -1.2315 H   0  0
   -1.8664   -0.2910   -1.2315 H   0  0
    2.6335   -2.3298    5.1868 H   0  0
    3.3137   -2.9956    6.8172 H   0  0
    4.9895   -1.2579    6.7517 H   0  0
    4.1052   -0.5331    5.2494 H   0  0
    1.4135    9.8376    6.8289 H   0  0
   -0.4072   11.6964    5.5623 H   0  0
    0.7192   12.2512    6.9721 H   0  0
    2.1955   12.7814    5.4713 H   0  0
    1.8290    9.1361    4.8992 H   0  0
    3.0168   10.3876    2.3133 H   0  0
    1.7313    8.0545    2.8165 H   0  0
    0.7146   11.1672    1.7609 H   0  0
   -0.2197   10.2828    4.2391 H   0  0
    0.3394   12.8530    3.6290 H   0  0
    2.8036   13.4034    3.5893 H   0  0
    3.0362    7.0590    6.0915 H   0  0
    5.8267   10.2678    5.2859 H   0  0
    6.8188    9.9767    7.5453 H   0  0
    4.0602    6.7343    8.3389 H   0  0
    7.7223    7.5615   10.4114 H   0  0
    7.4566    6.7117    8.8701 H   0  0
    8.0374    8.3942    8.8701 H   0  0
    0.6816    7.9877    7.4688 H   0  0
   -1.0492    8.0302    8.2218 H   0  0
   -1.9292    7.3605    6.0827 H   0  0
   -0.1551    7.1423    5.4750 H   0  0
   -3.8995   -0.7413    3.9205 H   0  0
   -6.4683    0.2719    3.0155 H   0  0
   -5.8479   -1.4520    2.5602 H   0  0
   -6.8492   -2.2134    4.3099 H   0  0
   -4.5315    0.2261    5.8576 H   0  0
   -6.8625   -0.2149    7.8577 H   0  0
   -5.9831    1.3773    8.7527 H   0  0
   -8.2511    1.2724    6.4398 H   0  0
   -6.4606    2.5151    5.6961 H   0  0
   -8.4305   -0.1250    4.3160 H   0  0
   -8.4026   -1.1228    6.8787 H   0  0
   -1.9531    0.0577    6.9514 H   0  0
   -4.3491   -3.5139    7.4357 H   0  0
   -2.4464   -4.9029    6.6429 H   0  0
   -0.0292   -1.3374    6.2042 H   0  0
    0.3029   -4.4009    7.9249 H   0  0
    0.2602   -5.8013    6.8270 H   0  0
    1.6688   -4.7130    6.8270 H   0  0
   -2.2461    0.5468    3.7940 H   0  0
   -2.2118    1.6364    2.2526 H   0  0
   -3.2042    3.4021    3.5958 H   0  0
   -2.8964    2.3202    5.1120 H   0  0
  1  2  1  0
  3  2  1  0
  3  4  1  0
  5  4  1  0
  5  6  1  0
  7  5  1  0
  7  8  1  0
  7  9  1  0
  9 10  1  0
  9 11  1  0
 11  3  1  0
 11 12  1  0
  6 13  1  0
 15 16  1  0
 16 17  2  0
 17 18  1  0
 14 18  2  0
 14 13  1  0
 13 15  2  0
 17 19  1  0
 19 20  1  0
  1 21  1  0
 21 22  2  0
 21 23  1  0
 23 24  1  0
 24 25  1  0
 25 27  1  0
 25 26  2  0
 28 29  1  0
 28 30  1  0
 28 31  1  0
 28 32  1  0
 27 32  1  0
 33 34  1  0
 35 34  1  0
 35 36  1  0
 37 36  1  0
 37 38  1  0
 39 37  1  0
 39 40  1  0
 39 41  1  0
 41 42  1  0
 41 43  1  0
 43 35  1  0
 43 44  1  0
 38 45  1  0
 47 48  1  0
 48 49  2  0
 49 50  1  0
 46 50  2  0
 46 45  1  0
 45 47  2  0
 49 51  1  0
 51 52  1  0
 33 53  1  0
 53 54  2  0
 53 55  1  0
 55 56  1  0
 56 57  1  0
 57 59  1  0
 57 58  2  0
 60 61  1  0
 62 61  1  0
 62 63  1  0
 64 63  1  0
 64 65  1  0
 66 64  1  0
 66 67  1  0
 66 68  1  0
 68 69  1  0
 68 70  1  0
 70 62  1  0
 70 71  1  0
 65 72  1  0
 74 75  1  0
 75 76  2  0
 76 77  1  0
 73 77  2  0
 73 72  1  0
 72 74  2  0
 76 78  1  0
 78 79  1  0
 60 80  1  0
 80 81  2  0
 80 82  1  0
 82 83  1  0
 83 84  1  0
 84 86  1  0
 84 85  2  0
 87 88  1  0
 89 88  1  0
 89 90  1  0
 91 90  1  0
 91 92  1  0
 93 91  1  0
 93 94  1  0
 93 95  1  0
 95 96  1  0
 95 97  1  0
 97 89  1  0
 97 98  1  0
 92 99  1  0
101102  1  0
102103  2  0
103104  1  0
100104  2  0
100 99  1  0
 99101  2  0
103105  1  0
105106  1  0
 87107  1  0
107108  2  0
107109  1  0
109110  1  0
110111  1  0
111113  1  0
111112  2  0
 59 31  1  0
 86 30  1  0
113 29  1  0
  1114  1  0
  2115  1  0
  2116  1  0
  3117  1  0
  5118  1  0
  7119  1  0
  8120  1  0
  9121  1  0
 10122  1  0
 11123  1  0
 12124  1  0
 14125  1  0
 15126  1  0
 16127  1  0
 18128  1  0
 20129  1  0
 20130  1  0
 20131  1  0
 23132  1  0
 23133  1  0
 24134  1  0
 24135  1  0
 29136  1  0
 29137  1  0
 30138  1  0
 30139  1  0
 31140  1  0
 31141  1  0
 32142  1  0
 32143  1  0
 33144  1  0
 34145  1  0
 34146  1  0
 35147  1  0
 37148  1  0
 39149  1  0
 40150  1  0
 41151  1  0
 42152  1  0
 43153  1  0
 44154  1  0
 46155  1  0
 47156  1  0
 48157  1  0
 50158  1  0
 52159  1  0
 52160  1  0
 52161  1  0
 55162  1  0
 55163  1  0
 56164  1  0
 56165  1  0
 60166  1  0
 61167  1  0
 61168  1  0
 62169  1  0
 64170  1  0
 66171  1  0
 67172  1  0
 68173  1  0
 69174  1  0
 70175  1  0
 71176  1  0
 73177  1  0
 74178  1  0
 75179  1  0
 77180  1  0
 79181  1  0
 79182  1  0
 79183  1  0
 82184  1  0
 82185  1  0
 83186  1  0
 83187  1  0
 87188  1  0
 88189  1  0
 88190  1  0
 89191  1  0
 91192  1  0
 93193  1  0
 94194  1  0
 95195  1  0
 96196  1  0
 97197  1  0
 98198  1  0
100199  1  0
101200  1  0
102201  1  0
104202  1  0
106203  1  0
106204  1  0
106205  1  0
109206  1  0
109207  1  0
110208  1  0
110209  1  0
M  END
> <Name>
RCF2009 - Produto - (59)

> <Clean Energy>
RCF2009 - Produto - (59)

$$$$
RCF2009 - Produto - (62)
  SciTegic12132405553D

 44 45  0  0  0  0            999 V2000
    0.8411   -1.9618    1.1910 N   0  0
    1.5126   -2.0991    2.4488 C   0  0
    1.1167   -0.9973    3.4873 C   0  0  1  0  0  0
   -0.0919   -0.2720    3.1797 O   0  0
   -1.3412   -0.9744    3.3771 C   0  0  2  0  0  0
   -2.4454   -0.0930    3.0800 O   0  0
   -1.4834   -1.4067    4.8581 C   0  0  1  0  0  0
   -2.6806   -2.1625    5.0426 O   0  0
   -0.2419   -2.2004    5.3455 C   0  0  1  0  0  0
   -0.2610   -3.5270    4.8202 O   0  0
    1.0824   -1.4676    4.9771 C   0  0  2  0  0  0
    1.2169   -0.3288    5.8304 O   0  0
   -2.4188    0.4054    1.8063 C   0  0
   -1.8115    1.6524    1.5455 C   0  0
   -3.0007   -0.3203    0.7490 C   0  0
   -2.9577    0.1857   -0.5630 C   0  0
   -2.3350    1.4228   -0.8281 C   0  0
   -1.7669    2.1569    0.2340 C   0  0
   -2.2414    1.8852   -2.1126 O   0  0
    1.0436   -2.7629    0.1066 C   0  0
    1.9425   -3.6369    0.0974 O   0  0
    0.2012   -2.6122   -1.0940 C   0  0
   -3.3409    2.7265   -2.4945 C   0  0
    0.1589   -1.2294    1.0558 H   0  0
    1.1641   -3.0566    2.8356 H   0  0
    2.5662   -1.9600    2.2067 H   0  0
    1.8821   -0.2322    3.3573 H   0  0
   -1.3432   -1.8021    2.6679 H   0  0
   -1.6295   -0.5319    5.4917 H   0  0
   -2.8501   -2.2695    5.9814 H   0  0
   -0.2918   -2.3563    6.4231 H   0  0
   -0.2700   -4.1577    5.5440 H   0  0
    1.9364   -2.1153    5.1754 H   0  0
    1.1836   -0.6104    6.7475 H   0  0
   -1.3747    2.2288    2.3611 H   0  0
   -3.4858   -1.2762    0.9465 H   0  0
   -3.4082   -0.3826   -1.3767 H   0  0
   -1.2913    3.1184    0.0403 H   0  0
   -0.0668   -3.5973   -1.4758 H   0  0
   -0.7048   -2.0639   -0.8357 H   0  0
    0.7523   -2.0639   -1.8580 H   0  0
   -3.8361    3.1053   -1.6005 H   0  0
   -2.9698    3.5631   -3.0864 H   0  0
   -4.0514    2.1494   -3.0864 H   0  0
  1  2  1  0
  3  2  1  0
  3  4  1  0
  5  4  1  0
  5  6  1  0
  7  5  1  0
  7  8  1  0
  7  9  1  0
  9 10  1  0
  9 11  1  0
 11  3  1  0
 11 12  1  0
  6 13  1  0
 15 16  1  0
 16 17  2  0
 17 18  1  0
 14 18  2  0
 14 13  1  0
 13 15  2  0
 17 19  1  0
  1 20  1  0
 20 21  2  0
 20 22  1  0
 19 23  1  0
  1 24  1  0
  2 25  1  0
  2 26  1  0
  3 27  1  0
  5 28  1  0
  7 29  1  0
  8 30  1  0
  9 31  1  0
 10 32  1  0
 11 33  1  0
 12 34  1  0
 14 35  1  0
 15 36  1  0
 16 37  1  0
 18 38  1  0
 22 39  1  0
 22 40  1  0
 22 41  1  0
 23 42  1  0
 23 43  1  0
 23 44  1  0
M  END
> <Name>
RCF2009 - Produto - (62)

> <Clean Energy>
RCF2009 - Produto - (62)

$$$$
RCF2009 - Produto - (85)
  SciTegic12132405553D

101106  0  0  0  0            999 V2000
    4.2562    3.7221   -1.9767 O   0  0
    3.1134    3.9420   -1.1189 C   0  0
    2.9222    2.7461   -0.1484 C   0  0  1  0  0  0
    3.9976    2.7766    0.8056 O   0  0
    3.9914    1.6756    1.7420 C   0  0  1  0  0  0
    5.2081    1.7153    2.5246 O   0  0
    2.7459    1.8136    2.6582 C   0  0  2  0  0  0
    2.7778    0.7061    3.5970 O   0  0
    1.4385    1.8064    1.7937 C   0  0  1  0  0  0
    0.3321    2.1848    2.6530 O   0  0
    1.5313    2.7831    0.5715 C   0  0  2  0  0  0
    0.4021    2.6560   -0.3284 O   0  0
    6.3296    1.5234    1.7513 C   0  0
    6.8264    0.2244    1.5012 C   0  0
    6.9851    2.6341    1.1840 C   0  0
    8.0727    2.4495    0.3114 C   0  0
    8.5379    1.1509   -0.0049 C   0  0
    7.9111    0.0438    0.6160 C   0  0
    6.2365   -0.8635    2.0866 O   0  0
    6.8898   -1.2579    3.3068 C   0  0
    9.6487    0.9615   -0.9817 C   0  0
   11.0585    0.9842   -0.3284 C   0  0
   12.1898    0.7749   -1.3663 C   0  0
   13.5127    0.7835   -0.7285 N   0  0
    4.3978    4.7102   -3.0187 C   0  0
    5.5645    4.3967   -3.8799 C   0  0
    0.3907    1.5909   -1.3033 C   0  0
   -0.9742    1.4653   -1.8638 C   0  0
   -0.9865    1.7235    2.2868 C   0  0
   -1.9679    2.0762    3.3437 C   0  0
    2.1690    0.9355    4.8848 C   0  0
    2.2528   -0.2714    5.7472 C   0  0
    7.7701    3.9026   -5.5855 C   0  0
    6.4923    3.4313   -5.9334 C   0  0
    5.3977    3.6699   -5.0829 C   0  0
    6.8592    4.8491   -3.5323 C   0  0
    7.9532    4.6121   -4.3856 C   0  0
   -3.5752    1.2664   -2.9634 C   0  0
   -2.9901    0.1532   -2.3345 C   0  0
   -1.7000    0.2526   -1.7806 C   0  0
   -1.5725    2.5758   -2.5046 C   0  0
   -2.8658    2.4772   -3.0481 C   0  0
   -2.2402    3.4333    3.6422 C   0  0
   -3.1878    3.7802    4.6243 C   0  0
   -3.8802    2.7728    5.3186 C   0  0
   -3.6309    1.4200    5.0245 C   0  0
   -2.6776    1.0737    4.0478 C   0  0
    2.9413   -0.2457    6.9856 C   0  0
    2.9632   -1.3765    7.8228 C   0  0
    2.3077   -2.5549    7.4241 C   0  0
    1.6332   -2.6023    6.1909 C   0  0
    1.6028   -1.4671    5.3595 C   0  0
    3.3669    4.8180   -0.5219 H   0  0
    2.2532    3.9687   -1.7878 H   0  0
    3.0155    1.7972   -0.6765 H   0  0
    4.0079    0.7396    1.1838 H   0  0
    2.7677    2.7181    3.2662 H   0  0
    1.2222    0.8039    1.4245 H   0  0
    1.3804    3.8024    0.9267 H   0  0
    6.6486    3.6432    1.4220 H   0  0
    8.5600    3.3218   -0.1242 H   0  0
    8.2696   -0.9646    0.4092 H   0  0
    6.9218   -2.3458    3.3666 H   0  0
    7.9058   -0.8633    3.3190 H   0  0
    6.3365   -0.8633    4.1591 H   0  0
    9.5060   -0.0416   -1.3837 H   0  0
    9.5962    1.8263   -1.6432 H   0  0
   11.1941    1.9902    0.0686 H   0  0
   11.0982    0.1243    0.3403 H   0  0
   12.0729   -0.2286   -1.7756 H   0  0
   12.1840    1.6387   -2.0310 H   0  0
   13.9733   -0.0883   -0.5092 H   0  0
   13.9619    1.6611   -0.5092 H   0  0
    3.5079    4.6207   -3.6418 H   0  0
    4.6173    5.6510   -2.5139 H   0  0
    1.0465    1.9077   -2.1143 H   0  0
    0.6034    0.6712   -0.7582 H   0  0
   -1.2645    2.2814    1.3926 H   0  0
   -0.9280    0.6356    2.2542 H   0  0
    2.7690    1.7093    5.3638 H   0  0
    1.1115    1.1103    4.6868 H   0  0
    8.6178    3.7182   -6.2454 H   0  0
    6.3501    2.8805   -6.8631 H   0  0
    4.4141    3.2891   -5.3578 H   0  0
    7.0156    5.3861   -2.5967 H   0  0
    8.9439    4.9786   -4.1166 H   0  0
   -4.5776    1.1908   -3.3848 H   0  0
   -3.5372   -0.7878   -2.2763 H   0  0
   -1.2611   -0.6133   -1.2850 H   0  0
   -1.0306    3.5185   -2.5804 H   0  0
   -3.3189    3.3403   -3.5357 H   0  0
   -1.7123    4.2231    3.1078 H   0  0
   -3.3853    4.8287    4.8472 H   0  0
   -4.6091    3.0402    6.0836 H   0  0
   -4.1770    0.6393    5.5540 H   0  0
   -2.4876    0.0216    3.8351 H   0  0
    3.4626    0.6586    7.2994 H   0  0
    3.4868   -1.3398    8.7781 H   0  0
    2.3223   -3.4320    8.0711 H   0  0
    1.1337   -3.5196    5.8793 H   0  0
    1.0720   -1.5143    4.4086 H   0  0
  1  2  1  0
  3  2  1  0
  3  4  1  0
  5  4  1  0
  5  6  1  0
  7  5  1  0
  7  8  1  0
  9  7  1  0
  9 10  1  0
 11  9  1  0
 11  3  1  0
 11 12  1  0
  6 13  1  0
 15 16  1  0
 16 17  2  0
 17 18  1  0
 14 18  2  0
 14 13  1  0
 13 15  2  0
 14 19  1  0
 19 20  1  0
 17 21  1  0
 21 22  1  0
 22 23  1  0
 23 24  1  0
  1 25  1  0
 25 26  1  0
 12 27  1  0
 27 28  1  0
 10 29  1  0
 29 30  1  0
  8 31  1  0
 31 32  1  0
 33 34  1  0
 34 35  2  0
 36 37  1  0
 33 37  2  0
 35 26  1  0
 26 36  2  0
 38 39  1  0
 39 40  2  0
 41 42  1  0
 38 42  2  0
 40 28  1  0
 28 41  2  0
 43 44  1  0
 44 45  2  0
 45 46  1  0
 46 47  2  0
 47 30  1  0
 43 30  2  0
 48 49  2  0
 49 50  1  0
 50 51  2  0
 51 52  1  0
 32 48  1  0
 32 52  2  0
  2 53  1  0
  2 54  1  0
  3 55  1  0
  5 56  1  0
  7 57  1  0
  9 58  1  0
 11 59  1  0
 15 60  1  0
 16 61  1  0
 18 62  1  0
 20 63  1  0
 20 64  1  0
 20 65  1  0
 21 66  1  0
 21 67  1  0
 22 68  1  0
 22 69  1  0
 23 70  1  0
 23 71  1  0
 24 72  1  0
 24 73  1  0
 25 74  1  0
 25 75  1  0
 27 76  1  0
 27 77  1  0
 29 78  1  0
 29 79  1  0
 31 80  1  0
 31 81  1  0
 33 82  1  0
 34 83  1  0
 35 84  1  0
 36 85  1  0
 37 86  1  0
 38 87  1  0
 39 88  1  0
 40 89  1  0
 41 90  1  0
 42 91  1  0
 43 92  1  0
 44 93  1  0
 45 94  1  0
 46 95  1  0
 47 96  1  0
 48 97  1  0
 49 98  1  0
 50 99  1  0
 51100  1  0
 52101  1  0
M  END
> <Name>
RCF2009 - Produto - (85)

> <Clean Energy>
RCF2009 - Produto - (85)

$$$$
RCF2009 - Produto - (86)
  SciTegic12132405553D

457480  0  0  0  0            999 V2000
   -5.7772    9.0698  -11.3269 O   0  0
   -6.2407    7.7129  -11.4734 C   0  0
   -5.9358    6.8602  -10.2142 C   0  0  1  0  0  0
   -4.5062    6.8074   -9.9910 O   0  0
   -4.0861    5.9241   -8.9145 C   0  0  1  0  0  0
   -2.6474    5.9454   -8.7646 O   0  0
   -4.7340    6.3797   -7.5753 C   0  0  2  0  0  0
   -4.3116    5.4818   -6.5166 O   0  0
   -6.2852    6.3751   -7.7677 C   0  0  1  0  0  0
   -6.9483    6.7170   -6.5388 O   0  0
   -6.6646    7.3599   -8.9266 C   0  0  1  0  0  0
   -6.2474    8.7252   -8.6548 O   0  0
   -1.9905    5.4817   -9.8746 C   0  0
   -1.5882    6.3838  -10.8831 C   0  0
   -1.7268    4.1047  -10.0250 C   0  0
   -1.1470    3.6198  -11.2107 C   0  0
   -0.8072    4.5040  -12.2599 C   0  0
   -1.0005    5.8922  -12.0662 C   0  0
   -1.8346    7.7239  -10.7437 O   0  0
   -0.7170    8.4657  -10.2299 C   0  0
   -0.2864    3.9850  -13.5525 C   0  0
    1.2415    4.1841  -13.7017 C   0  0
    1.7718    3.6124  -15.0388 C   0  0
    3.1709    3.8568  -15.1652 N   0  0
   -6.0023    9.8945  -12.4851 C   0  0
   -5.5223   11.2625  -12.1843 C   0  0
   -7.1402    9.5501   -7.8743 C   0  0
   -6.5627   10.9058   -7.7072 C   0  0
   -8.3030    6.2456   -6.3838 C   0  0
   -8.9141    7.0581   -5.3107 C   0  0
   -4.0854    6.0938   -5.2253 C   0  0
   -3.8012    5.0705   -4.1884 C   0  0
   -4.5917   13.8699  -11.5930 C   0  0
   -5.9303   13.5255  -11.3366 C   0  0
   -6.3928   12.2285  -11.6266 C   0  0
   -4.1786   11.6227  -12.4399 C   0  0
   -3.7168   12.9186  -12.1461 C   0  0
   -5.4492   13.4842   -7.3248 C   0  0
   -4.7356   12.3433   -6.9212 C   0  0
   -5.2903   11.0632   -7.1066 C   0  0
   -7.2748   12.0662   -8.0950 C   0  0
   -6.7240   13.3460   -7.8984 C   0  0
   -9.9353    8.0026   -5.5790 C   0  0
  -10.4660    8.7945   -4.5421 C   0  0
   -9.9805    8.6538   -3.2293 C   0  0
   -8.9749    7.7113   -2.9496 C   0  0
   -8.4505    6.9138   -3.9826 C   0  0
   -4.6927    3.9878   -4.0022 C   0  0
   -4.4561    3.0230   -3.0054 C   0  0
   -3.3249    3.1287   -2.1783 C   0  0
   -2.4333    4.2021   -2.3459 C   0  0
   -2.6672    5.1654   -3.3451 C   0  0
    3.9666    3.3270  -16.1317 C   0  0
    3.4939    2.5927  -17.0327 O   0  0
    5.4216    3.5892  -16.0932 C   0  0
    6.0674    3.0096  -14.8080 C   0  0
    7.5383    3.0757  -14.8270 C   0  0
    8.1366    4.1740  -14.7577 O   0  0
    8.2555    1.9370  -15.0037 O   0  0
    9.6576   -0.0376  -14.4797 C   0  0  2  0  0  0
    8.7854    1.1448  -13.9348 C   0  0
   10.0861   -0.9498  -13.2797 C   0  0
   10.9105    0.5636  -15.2040 C   0  0
    8.8484   -0.9090  -15.5003 C   0  0
   21.1269   -6.7300   -2.0385 O   0  0
   21.7019   -5.4410   -2.3306 C   0  0
   20.9066   -4.2897   -1.6615 C   0  0  1  0  0  0
   19.5465   -4.2791   -2.1576 O   0  0
   18.7372   -3.1589   -1.7040 C   0  0  1  0  0  0
   17.3979   -3.2407   -2.2445 O   0  0
   18.6496   -3.1666   -0.1505 C   0  0  2  0  0  0
   17.8477   -2.0375    0.2829 O   0  0
   20.1067   -3.1047    0.4118 C   0  0  1  0  0  0
   20.0922   -3.0338    1.8476 O   0  0
   20.9112   -4.3484   -0.1010 C   0  0  1  0  0  0
   20.3178   -5.6063    0.3201 O   0  0
   17.3711   -3.1608   -3.6126 C   0  0
   17.4225   -4.3392   -4.3881 C   0  0
   17.3087   -1.9063   -4.2534 C   0  0
   17.3867   -1.8221   -5.6549 C   0  0
   17.5134   -2.9904   -6.4404 C   0  0
   17.4929   -4.2484   -5.7930 C   0  0
   17.4775   -5.5628   -3.7750 O   0  0
   16.1991   -6.2065   -3.6560 C   0  0
   17.6960   -2.8997   -7.9134 C   0  0
   16.4049   -3.2430   -8.6955 C   0  0
   16.6036   -3.1153  -10.2252 C   0  0
   15.4121   -3.4861  -10.9151 N   0  0
   21.8066   -7.8316   -2.6682 C   0  0
   21.1441   -9.0884   -2.2515 C   0  0
   20.6802   -6.1082    1.6252 C   0  0
   19.9951   -7.3984    1.8810 C   0  0
   21.2476   -2.4411    2.4761 C   0  0
   21.2260   -2.8684    3.8910 C   0  0
   17.0009   -2.2716    1.4324 C   0  0
   16.3400   -1.0189    1.8764 C   0  0
   19.8593  -11.4801   -1.4494 C   0  0
   20.9439  -10.9811   -0.7074 C   0  0
   21.5808   -9.7903   -1.1031 C   0  0
   20.0534   -9.6027   -2.9907 C   0  0
   19.4155  -10.7913   -2.5918 C   0  0
   18.6487   -9.8350    2.4146 C   0  0
   17.9139   -8.6812    2.0945 C   0  0
   18.5819   -7.4701    1.8342 C   0  0
   20.7199   -8.5665    2.2193 C   0  0
   20.0500   -9.7739    2.4907 C   0  0
   22.1829   -3.7737    4.4123 C   0  0
   22.1088   -4.1972    5.7536 C   0  0
   21.0778   -3.7243    6.5857 C   0  0
   20.1292   -2.8166    6.0819 C   0  0
   20.2075   -2.3861    4.7453 C   0  0
   17.1169    0.1336    2.1408 C   0  0
   16.5126    1.3223    2.5902 C   0  0
   15.1216    1.3748    2.7842 C   0  0
   14.3367    0.2365    2.5327 C   0  0
   14.9399   -0.9518    2.0797 C   0  0
   15.2008   -3.3122  -12.2467 C   0  0
   16.0914   -2.8325  -12.9890 O   0  0
   13.8817   -3.6572  -12.8196 C   0  0
   12.7541   -2.7842  -12.2103 C   0  0
   11.4621   -2.9592  -12.8945 C   0  0
   10.8231   -4.0327  -12.8036 O   0  0
   10.9950   -1.9729  -13.7015 O   0  0
   27.3147    1.2671  -18.6798 O   0  0
   27.1955   -0.1062  -18.2587 C   0  0
   26.5209   -0.9856  -19.3437 C   0  0  1  0  0  0
   25.1842   -0.4973  -19.6107 O   0  0
   24.3994   -1.3227  -20.5154 C   0  0  1  0  0  0
   23.0874   -0.7505  -20.7250 O   0  0
   25.1212   -1.4323  -21.8893 C   0  0  2  0  0  0
   24.3291   -2.2665  -22.7738 O   0  0
   26.5445   -2.0270  -21.6367 C   0  0  1  0  0  0
   27.2386   -2.2236  -22.8802 O   0  0
   27.3365   -1.0786  -20.6722 C   0  0  1  0  0  0
   27.4963    0.2595  -21.2160 O   0  0
   22.3448   -0.6880  -19.5746 C   0  0
   22.3831    0.4738  -18.7737 C   0  0
   21.5532   -1.7846  -19.1754 C   0  0
   20.8756   -1.7579  -17.9436 C   0  0
   20.9653   -0.6296  -17.0969 C   0  0
   21.6954    0.4972  -17.5435 C   0  0
   23.1444    1.5463  -19.1558 O   0  0
   22.4024    2.5638  -19.8465 C   0  0
   20.3322   -0.6370  -15.7513 C   0  0
   19.0228    0.1874  -15.7050 C   0  0
   18.3614    0.1452  -14.3062 C   0  0
   17.1870    0.9537  -14.2857 N   0  0
   27.9010    2.1345  -17.6919 C   0  0
   28.0033    3.4950  -18.2671 C   0  0
   28.6138    0.4877  -22.1024 C   0  0
   28.6276    1.9021  -22.5481 C   0  0
   28.2795   -3.2225  -22.8873 C   0  0
   29.1227   -2.9473  -24.0698 C   0  0
   24.3174   -1.8737  -24.1662 C   0  0
   23.6017   -2.8717  -24.9997 C   0  0
   28.1833    6.0910  -19.3818 C   0  0
   29.2567    5.1928  -19.5132 C   0  0
   29.1666    3.9009  -18.9628 C   0  0
   26.9316    4.4092  -18.1397 C   0  0
   27.0217    5.6992  -18.6937 C   0  0
   28.6372    4.5859  -23.4599 C   0  0
   27.5075    3.7769  -23.6673 C   0  0
   27.5042    2.4429  -23.2190 C   0  0
   29.7632    2.7260  -22.3599 C   0  0
   29.7695    4.0561  -22.8191 C   0  0
   30.4486   -2.4643  -23.9451 C   0  0
   31.2116   -2.1681  -25.0915 C   0  0
   30.6576   -2.3478  -26.3720 C   0  0
   29.3463   -2.8376  -26.5077 C   0  0
   28.5868   -3.1420  -25.3638 C   0  0
   22.5697   -2.4889  -25.8911 C   0  0
   21.9257   -3.4465  -26.6971 C   0  0
   22.2995   -4.7992  -26.6207 C   0  0
   23.3241   -5.1935  -25.7432 C   0  0
   23.9709   -4.2362  -24.9398 C   0  0
   16.2851    0.9857  -13.2692 C   0  0
   16.4568    0.3095  -12.2262 O   0  0
   15.0602    1.8013  -13.4160 C   0  0
   14.1834    1.2990  -14.5924 C   0  0
   12.8670    1.9565  -14.6462 C   0  0
   12.7616    3.1677  -14.9478 O   0  0
   11.7584    1.2617  -14.2851 O   0  0
   -4.0340   -3.7573  -25.8736 O   0  0
   -4.0263   -2.3161  -25.8561 C   0  0
   -2.8614   -1.7353  -26.6994 C   0  0  1  0  0  0
   -1.5941   -2.1813  -26.1595 O   0  0
   -0.4202   -1.5929  -26.7851 C   0  0  1  0  0  0
    0.7924   -2.1047  -26.1848 O   0  0
   -0.4064   -1.9313  -28.3037 C   0  0  2  0  0  0
    0.7652   -1.3281  -28.9114 O   0  0
   -1.7356   -1.3939  -28.9263 C   0  0  1  0  0  0
   -1.7521   -1.6100  -30.3475 O   0  0
   -2.9527   -2.0833  -28.2191 C   0  0  1  0  0  0
   -2.9363   -3.5288  -28.3682 O   0  0
    0.9048   -1.7833  -24.8571 C   0  0
    0.4129   -2.6688  -23.8739 C   0  0
    1.4953   -0.5642  -24.4651 C   0  0
    1.5150   -0.1903  -23.1097 C   0  0
    0.9587   -1.0344  -22.1218 C   0  0
    0.4425   -2.2914  -22.5162 C   0  0
   -0.1570   -3.8579  -24.2443 O   0  0
    0.7459   -4.9734  -24.1864 C   0  0
    0.8886   -0.5987  -20.7017 C   0  0
    1.9612   -1.2789  -19.8166 C   0  0
    1.8935   -0.7927  -18.3487 C   0  0
    2.8603   -1.4748  -17.5528 N   0  0
   -5.0750   -4.3479  -25.0737 C   0  0
   -4.9948   -5.8194  -25.2159 C   0  0
   -3.5235   -4.0800  -29.5674 C   0  0
   -3.4297   -5.5598  -29.5445 C   0  0
   -2.5937   -0.7324  -31.1239 C   0  0
   -2.8043   -1.3929  -32.4294 C   0  0
    1.3975   -2.0990  -29.9597 C   0  0
    2.4898   -1.3303  -30.6071 C   0  0
   -4.8205   -8.6312  -25.4946 C   0  0
   -5.6400   -7.8876  -26.3616 C   0  0
   -5.7243   -6.4896  -26.2263 C   0  0
   -4.1761   -6.5796  -24.3485 C   0  0
   -4.0901   -7.9769  -24.4873 C   0  0
   -3.2064   -8.3855  -29.5488 C   0  0
   -2.0555   -7.5895  -29.4248 C   0  0
   -2.1655   -6.1865  -29.4275 C   0  0
   -4.5780   -6.3761  -29.6832 C   0  0
   -4.4652   -7.7787  -29.6920 C   0  0
   -4.0658   -1.9151  -32.8071 C   0  0
   -4.2240   -2.5796  -34.0389 C   0  0
   -3.1246   -2.7320  -34.9032 C   0  0
   -1.8703   -2.2076  -34.5435 C   0  0
   -1.7134   -1.5362  -33.3178 C   0  0
    3.7880   -1.8751  -30.7623 C   0  0
    4.8012   -1.1425  -31.4086 C   0  0
    4.5340    0.1453  -31.9041 C   0  0
    3.2498    0.6978  -31.7604 C   0  0
    2.2352   -0.0356  -31.1177 C   0  0
    3.1778   -1.1509  -16.2714 C   0  0
    2.5883   -0.2202  -15.6709 O   0  0
    4.2669   -1.8838  -15.5900 C   0  0
    5.6254   -1.6749  -16.3081 C   0  0
    6.7629   -2.2235  -15.5511 C   0  0
    6.9091   -3.4594  -15.4097 O   0  0
    7.6214   -1.3763  -14.9285 O   0  0
   -7.3241    7.7944  -11.5616 H   0  0
   -5.6561    7.3041  -12.2975 H   0  0
   -6.2480    5.8349  -10.4126 H   0  0
   -4.3610    4.9147   -9.2206 H   0  0
   -4.3884    7.3560   -7.2354 H   0  0
   -6.6678    5.3738   -7.9651 H   0  0
   -7.7466    7.4446   -9.0282 H   0  0
   -1.9725    3.4114   -9.2205 H   0  0
   -0.9597    2.5513  -11.3172 H   0  0
   -0.6917    6.5942  -12.8408 H   0  0
   -0.7406    8.4500   -9.1403 H   0  0
    0.2109    8.0134  -10.5798 H   0  0
   -0.7734    9.4965  -10.5798 H   0  0
   -0.4634    2.9098  -13.5241 H   0  0
   -0.7610    4.5954  -14.3207 H   0  0
    1.4060    5.2608  -13.7439 H   0  0
    1.7047    3.5925  -12.9120 H   0  0
    1.6753    2.5272  -15.0028 H   0  0
    1.3110    4.1738  -15.8514 H   0  0
    3.6427    4.4621  -14.5085 H   0  0
   -5.3721    9.4934  -13.2788 H   0  0
   -7.0823    9.9492  -12.6218 H   0  0
   -8.0489    9.6591   -8.4663 H   0  0
   -7.1858    9.0965   -6.8843 H   0  0
   -8.8272    6.4724   -7.3122 H   0  0
   -8.2434    5.2167   -6.0289 H   0  0
   -3.1823    6.6945   -5.3327 H   0  0
   -5.0268    6.5695   -4.9504 H   0  0
   -4.2328   14.8731  -11.3633 H   0  0
   -6.6100   14.2646  -10.9127 H   0  0
   -7.4311   11.9708  -11.4181 H   0  0
   -3.4911   10.8932  -12.8683 H   0  0
   -2.6794   13.1859  -12.3472 H   0  0
   -5.0143   14.4750   -7.1931 H   0  0
   -3.7519   12.4513   -6.4643 H   0  0
   -4.7298   10.1864   -6.7822 H   0  0
   -8.2604   11.9730   -8.5511 H   0  0
   -7.2863   14.2327   -8.1911 H   0  0
  -10.3165    8.1212   -6.5932 H   0  0
  -11.2536    9.5171   -4.7558 H   0  0
  -10.3832    9.2748   -2.4291 H   0  0
   -8.6017    7.5988   -1.9316 H   0  0
   -7.6794    6.1787   -3.7522 H   0  0
   -5.5747    3.8956   -4.6359 H   0  0
   -5.1500    2.1928   -2.8739 H   0  0
   -3.1394    2.3798   -1.4083 H   0  0
   -1.5593    4.2875   -1.7002 H   0  0
   -1.9655    5.9906   -3.4666 H   0  0
    5.8386    3.0421  -16.9387 H   0  0
    5.5209    4.6736  -16.0433 H   0  0
    5.7654    3.6528  -13.9815 H   0  0
    5.8318    1.9456  -14.7848 H   0  0
    7.9096    0.7189  -13.4451 H   0  0
    9.4410    1.8216  -13.3869 H   0  0
   10.6598   -0.3400  -12.5818 H   0  0
    9.2034   -1.4883  -12.9347 H   0  0
   11.5185   -0.2648  -15.5676 H   0  0
   10.5629    1.3297  -15.8971 H   0  0
    8.5424   -0.2645  -16.3244 H   0  0
    9.4231   -1.8134  -15.7002 H   0  0
   22.6919   -5.4657   -1.8751 H   0  0
   21.6013   -5.3270   -3.4099 H   0  0
   21.3487   -3.3435   -1.9735 H   0  0
   19.1955   -2.2612   -2.1189 H   0  0
   18.1156   -4.0282    0.2503 H   0  0
   20.6085   -2.1759    0.1404 H   0  0
   21.9059   -4.3799    0.3436 H   0  0
   17.1995   -0.9969   -3.6624 H   0  0
   17.3487   -0.8445   -6.1356 H   0  0
   17.5318   -5.1622   -6.3859 H   0  0
   15.9517   -6.3310   -2.6018 H   0  0
   15.4374   -5.5936   -4.1379 H   0  0
   16.2379   -7.1834   -4.1379 H   0  0
   17.9165   -1.8510   -8.1128 H   0  0
   18.4289   -3.6674   -8.1612 H   0  0
   16.2018   -4.2962   -8.5013 H   0  0
   15.6706   -2.4864   -8.4191 H   0  0
   16.7503   -2.0607  -10.4588 H   0  0
   17.3487   -3.8499  -10.5305 H   0  0
   14.6458   -3.9120  -10.4136 H   0  0
   21.6511   -7.7196   -3.7412 H   0  0
   22.8183   -7.8446   -2.2625 H   0  0
   21.7496   -6.3151    1.5853 H   0  0
   20.2906   -5.3896    2.3463 H   0  0
   22.1268   -2.8842    2.0083 H   0  0
   21.1037   -1.3609    2.4526 H   0  0
   16.2117   -2.9417    1.0914 H   0  0
   17.6676   -2.5800    2.2377 H   0  0
   19.3631  -12.3997   -1.1393 H   0  0
   21.2914  -11.5178    0.1754 H   0  0
   22.4170   -9.4095   -0.5167 H   0  0
   19.7005   -9.0770   -3.8780 H   0  0
   18.5760  -11.1792   -3.1687 H   0  0
   18.1323  -10.7761    2.6036 H   0  0
   16.8258   -8.7256    2.0481 H   0  0
   17.9999   -6.5802    1.5944 H   0  0
   21.8082   -8.5358    2.2714 H   0  0
   20.6182  -10.6641    2.7606 H   0  0
   22.9840   -4.1480    3.7750 H   0  0
   22.8504   -4.8919    6.1481 H   0  0
   21.0140   -4.0612    7.6204 H   0  0
   19.3329   -2.4464    6.7277 H   0  0
   19.4735   -1.6736    4.3688 H   0  0
   18.1969    0.1052    1.9961 H   0  0
   17.1227    2.2036    2.7883 H   0  0
   14.6527    2.2963    3.1291 H   0  0
   13.2586    0.2753    2.6893 H   0  0
   14.3186   -1.8259    1.8849 H   0  0
   13.9488   -3.4050  -13.8779 H   0  0
   13.6924   -4.6868  -12.5157 H   0  0
   12.5875   -3.1421  -11.1943 H   0  0
   13.0279   -1.7435  -12.3835 H   0  0
   28.2219   -0.4545  -18.1437 H   0  0
   26.5295   -0.0784  -17.3963 H   0  0
   26.3996   -1.9912  -18.9410 H   0  0
   24.2549   -2.2785  -20.0116 H   0  0
   25.1863   -0.4840  -22.4228 H   0  0
   26.4972   -3.0399  -21.2367 H   0  0
   28.3634   -1.4211  -20.5447 H   0  0
   21.4647   -2.6574  -19.8224 H   0  0
   20.2767   -2.6176  -17.6431 H   0  0
   21.7286    1.3976  -16.9301 H   0  0
   21.9234    3.2205  -19.1202 H   0  0
   23.0793    3.1460  -20.4718 H   0  0
   21.6412    2.0971  -20.4718 H   0  0
   20.0581   -1.6757  -15.5671 H   0  0
   21.0439   -0.1364  -15.0948 H   0  0
   19.3095    1.2251  -15.8755 H   0  0
   18.3282   -0.3050  -16.3856 H   0  0
   18.0093   -0.8713  -14.1308 H   0  0
   19.0426    0.6160  -13.5974 H   0  0
   16.9740    1.5608  -15.0643 H   0  0
   27.1952    2.1819  -16.8626 H   0  0
   28.9154    1.7728  -17.5243 H   0  0
   29.5123    0.3306  -21.5056 H   0  0
   28.4318   -0.1252  -22.9851 H   0  0
   28.8879   -3.0547  -21.9986 H   0  0
   27.7945   -4.1864  -23.0417 H   0  0
   23.7394   -0.9506  -24.2120 H   0  0
   25.3587   -1.8812  -24.4882 H   0  0
   28.2517    7.0898  -19.8129 H   0  0
   30.1594    5.4983  -20.0422 H   0  0
   30.0027    3.2108  -19.0760 H   0  0
   26.0260    4.1164  -17.6086 H   0  0
   26.1902    6.3962  -18.5895 H   0  0
   28.6352    5.6229  -23.7956 H   0  0
   26.6338    4.1843  -24.1760 H   0  0
   26.6243    1.8235  -23.3928 H   0  0
   30.6446    2.3310  -21.8548 H   0  0
   30.6537    4.6777  -22.6781 H   0  0
   30.8861   -2.3190  -22.9574 H   0  0
   32.2320   -1.7994  -24.9875 H   0  0
   31.2442   -2.1077  -27.2588 H   0  0
   28.9185   -2.9813  -27.4998 H   0  0
   27.5756   -3.5317  -25.4811 H   0  0
   22.2671   -1.4439  -25.9578 H   0  0
   21.1354   -3.1398  -27.3822 H   0  0
   21.7959   -5.5408  -27.2407 H   0  0
   23.6170   -6.2418  -25.6858 H   0  0
   24.7653   -4.5546  -24.2648 H   0  0
   14.4923    1.6417  -12.4994 H   0  0
   15.4059    2.8019  -13.6757 H   0  0
   14.6858    1.5948  -15.5134 H   0  0
   13.9675    0.2476  -14.4028 H   0  0
   -4.9594   -2.0247  -26.3384 H   0  0
   -3.8444   -2.0491  -24.8151 H   0  0
   -2.8699   -0.6507  -26.5917 H   0  0
   -0.4591   -0.5255  -26.5678 H   0  0
   -0.2832   -2.9943  -28.5109 H   0  0
   -1.8075   -0.3084  -28.8575 H   0  0
   -3.8925   -1.7940  -28.6895 H   0  0
    1.9387    0.0924  -25.2136 H   0  0
    1.9645    0.7604  -22.8230 H   0  0
    0.0615   -2.9801  -21.7620 H   0  0
    0.9483   -5.2234  -23.1449 H   0  0
    0.2957   -5.8316  -24.6852 H   0  0
    1.6791   -4.7117  -24.6852 H   0  0
    1.1192    0.4665  -20.7149 H   0  0
   -0.0815   -0.9419  -20.3421 H   0  0
    1.7130   -2.3401  -19.7981 H   0  0
    2.9268   -0.9516  -20.2020 H   0  0
    2.1954    0.2544  -18.3265 H   0  0
    0.9280   -1.0904  -17.9396 H   0  0
    3.3678   -2.2612  -17.9324 H   0  0
   -4.8439   -4.1061  -24.0362 H   0  0
   -6.0210   -4.0277  -25.5102 H   0  0
   -4.5827   -3.8250  -29.5323 H   0  0
   -2.9063   -3.7321  -30.3957 H   0  0
   -3.5572   -0.6840  -30.6164 H   0  0
   -2.0245    0.1802  -31.3009 H   0  0
    1.8615   -2.9526  -29.4655 H   0  0
    0.6309   -2.2588  -30.7179 H   0  0
   -4.7517   -9.7136  -25.6033 H   0  0
   -6.2104   -8.3955  -27.1393 H   0  0
   -6.3582   -5.9225  -26.9080 H   0  0
   -3.6050   -6.0830  -23.5641 H   0  0
   -3.4564   -8.5534  -23.8134 H   0  0
   -3.1228   -9.4722  -29.5338 H   0  0
   -1.0774   -8.0604  -29.3266 H   0  0
   -1.2641   -5.5801  -29.3382 H   0  0
   -5.5621   -5.9185  -29.7844 H   0  0
   -5.3552   -8.3967  -29.8102 H   0  0
   -4.9233   -1.8046  -32.1433 H   0  0
   -5.1985   -2.9763  -34.3237 H   0  0
   -3.2446   -3.2563  -35.8513 H   0  0
   -1.0194   -2.3216  -35.2151 H   0  0
   -0.7394   -1.1239  -33.0544 H   0  0
    4.0101   -2.8712  -30.3794 H   0  0
    5.7955   -1.5735  -31.5257 H   0  0
    5.3211    0.7143  -32.3989 H   0  0
    3.0406    1.6950  -32.1474 H   0  0
    1.2429    0.4033  -31.0143 H   0  0
    4.3506   -1.4293  -14.6028 H   0  0
    4.0112   -2.9391  -15.6842 H   0  0
    5.5915   -2.2560  -17.2297 H   0  0
    5.8031   -0.6002  -16.3477 H   0  0
  1  2  1  0
  3  2  1  0
  3  4  1  0
  5  4  1  0
  5  6  1  0
  7  5  1  0
  7  8  1  0
  9  7  1  0
  9 10  1  0
 11  9  1  0
 11  3  1  0
 11 12  1  0
  6 13  1  0
 15 16  1  0
 16 17  2  0
 17 18  1  0
 14 18  2  0
 14 13  1  0
 13 15  2  0
 14 19  1  0
 19 20  1  0
 17 21  1  0
 21 22  1  0
 22 23  1  0
 23 24  1  0
  1 25  1  0
 25 26  1  0
 12 27  1  0
 27 28  1  0
 10 29  1  0
 29 30  1  0
  8 31  1  0
 31 32  1  0
 33 34  1  0
 34 35  2  0
 36 37  1  0
 33 37  2  0
 35 26  1  0
 26 36  2  0
 38 39  1  0
 39 40  2  0
 41 42  1  0
 38 42  2  0
 40 28  1  0
 28 41  2  0
 43 44  1  0
 44 45  2  0
 45 46  1  0
 46 47  2  0
 47 30  1  0
 43 30  2  0
 48 49  2  0
 49 50  1  0
 50 51  2  0
 51 52  1  0
 32 48  1  0
 32 52  2  0
 24 53  1  0
 53 54  2  0
 53 55  1  0
 55 56  1  0
 56 57  1  0
 57 58  2  0
 57 59  1  0
 60 61  1  0
 60 62  1  0
 60 63  1  0
 60 64  1  0
 65 66  1  0
 67 66  1  0
 67 68  1  0
 69 68  1  0
 69 70  1  0
 71 69  1  0
 71 72  1  0
 73 71  1  0
 73 74  1  0
 75 73  1  0
 75 67  1  0
 75 76  1  0
 70 77  1  0
 79 80  1  0
 80 81  2  0
 81 82  1  0
 78 82  2  0
 78 77  1  0
 77 79  2  0
 78 83  1  0
 83 84  1  0
 81 85  1  0
 85 86  1  0
 86 87  1  0
 87 88  1  0
 65 89  1  0
 89 90  1  0
 76 91  1  0
 91 92  1  0
 74 93  1  0
 93 94  1  0
 72 95  1  0
 95 96  1  0
 97 98  1  0
 98 99  2  0
100101  1  0
 97101  2  0
 99 90  1  0
 90100  2  0
102103  1  0
103104  2  0
105106  1  0
102106  2  0
104 92  1  0
 92105  2  0
107108  1  0
108109  2  0
109110  1  0
110111  2  0
111 94  1  0
107 94  2  0
112113  2  0
113114  1  0
114115  2  0
115116  1  0
 96112  1  0
 96116  2  0
 88117  1  0
117118  2  0
117119  1  0
119120  1  0
120121  1  0
121122  2  0
121123  1  0
124125  1  0
126125  1  0
126127  1  0
128127  1  0
128129  1  0
130128  1  0
130131  1  0
132130  1  0
132133  1  0
134132  1  0
134126  1  0
134135  1  0
129136  1  0
138139  1  0
139140  2  0
140141  1  0
137141  2  0
137136  1  0
136138  2  0
137142  1  0
142143  1  0
140144  1  0
144145  1  0
145146  1  0
146147  1  0
124148  1  0
148149  1  0
135150  1  0
150151  1  0
133152  1  0
152153  1  0
131154  1  0
154155  1  0
156157  1  0
157158  2  0
159160  1  0
156160  2  0
158149  1  0
149159  2  0
161162  1  0
162163  2  0
164165  1  0
161165  2  0
163151  1  0
151164  2  0
166167  1  0
167168  2  0
168169  1  0
169170  2  0
170153  1  0
166153  2  0
171172  2  0
172173  1  0
173174  2  0
174175  1  0
155171  1  0
155175  2  0
147176  1  0
176177  2  0
176178  1  0
178179  1  0
179180  1  0
180181  2  0
180182  1  0
183184  1  0
185184  1  0
185186  1  0
187186  1  0
187188  1  0
189187  1  0
189190  1  0
191189  1  0
191192  1  0
193191  1  0
193185  1  0
193194  1  0
188195  1  0
197198  1  0
198199  2  0
199200  1  0
196200  2  0
196195  1  0
195197  2  0
196201  1  0
201202  1  0
199203  1  0
203204  1  0
204205  1  0
205206  1  0
183207  1  0
207208  1  0
194209  1  0
209210  1  0
192211  1  0
211212  1  0
190213  1  0
213214  1  0
215216  1  0
216217  2  0
218219  1  0
215219  2  0
217208  1  0
208218  2  0
220221  1  0
221222  2  0
223224  1  0
220224  2  0
222210  1  0
210223  2  0
225226  1  0
226227  2  0
227228  1  0
228229  2  0
229212  1  0
225212  2  0
230231  2  0
231232  1  0
232233  2  0
233234  1  0
214230  1  0
214234  2  0
206235  1  0
235236  2  0
235237  1  0
237238  1  0
238239  1  0
239240  2  0
239241  1  0
 59 61  1  0
123 62  1  0
182 63  1  0
241 64  1  0
  2242  1  0
  2243  1  0
  3244  1  0
  5245  1  0
  7246  1  0
  9247  1  0
 11248  1  0
 15249  1  0
 16250  1  0
 18251  1  0
 20252  1  0
 20253  1  0
 20254  1  0
 21255  1  0
 21256  1  0
 22257  1  0
 22258  1  0
 23259  1  0
 23260  1  0
 24261  1  0
 25262  1  0
 25263  1  0
 27264  1  0
 27265  1  0
 29266  1  0
 29267  1  0
 31268  1  0
 31269  1  0
 33270  1  0
 34271  1  0
 35272  1  0
 36273  1  0
 37274  1  0
 38275  1  0
 39276  1  0
 40277  1  0
 41278  1  0
 42279  1  0
 43280  1  0
 44281  1  0
 45282  1  0
 46283  1  0
 47284  1  0
 48285  1  0
 49286  1  0
 50287  1  0
 51288  1  0
 52289  1  0
 55290  1  0
 55291  1  0
 56292  1  0
 56293  1  0
 61294  1  0
 61295  1  0
 62296  1  0
 62297  1  0
 63298  1  0
 63299  1  0
 64300  1  0
 64301  1  0
 66302  1  0
 66303  1  0
 67304  1  0
 69305  1  0
 71306  1  0
 73307  1  0
 75308  1  0
 79309  1  0
 80310  1  0
 82311  1  0
 84312  1  0
 84313  1  0
 84314  1  0
 85315  1  0
 85316  1  0
 86317  1  0
 86318  1  0
 87319  1  0
 87320  1  0
 88321  1  0
 89322  1  0
 89323  1  0
 91324  1  0
 91325  1  0
 93326  1  0
 93327  1  0
 95328  1  0
 95329  1  0
 97330  1  0
 98331  1  0
 99332  1  0
100333  1  0
101334  1  0
102335  1  0
103336  1  0
104337  1  0
105338  1  0
106339  1  0
107340  1  0
108341  1  0
109342  1  0
110343  1  0
111344  1  0
112345  1  0
113346  1  0
114347  1  0
115348  1  0
116349  1  0
119350  1  0
119351  1  0
120352  1  0
120353  1  0
125354  1  0
125355  1  0
126356  1  0
128357  1  0
130358  1  0
132359  1  0
134360  1  0
138361  1  0
139362  1  0
141363  1  0
143364  1  0
143365  1  0
143366  1  0
144367  1  0
144368  1  0
145369  1  0
145370  1  0
146371  1  0
146372  1  0
147373  1  0
148374  1  0
148375  1  0
150376  1  0
150377  1  0
152378  1  0
152379  1  0
154380  1  0
154381  1  0
156382  1  0
157383  1  0
158384  1  0
159385  1  0
160386  1  0
161387  1  0
162388  1  0
163389  1  0
164390  1  0
165391  1  0
166392  1  0
167393  1  0
168394  1  0
169395  1  0
170396  1  0
171397  1  0
172398  1  0
173399  1  0
174400  1  0
175401  1  0
178402  1  0
178403  1  0
179404  1  0
179405  1  0
184406  1  0
184407  1  0
185408  1  0
187409  1  0
189410  1  0
191411  1  0
193412  1  0
197413  1  0
198414  1  0
200415  1  0
202416  1  0
202417  1  0
202418  1  0
203419  1  0
203420  1  0
204421  1  0
204422  1  0
205423  1  0
205424  1  0
206425  1  0
207426  1  0
207427  1  0
209428  1  0
209429  1  0
211430  1  0
211431  1  0
213432  1  0
213433  1  0
215434  1  0
216435  1  0
217436  1  0
218437  1  0
219438  1  0
220439  1  0
221440  1  0
222441  1  0
223442  1  0
224443  1  0
225444  1  0
226445  1  0
227446  1  0
228447  1  0
229448  1  0
230449  1  0
231450  1  0
232451  1  0
233452  1  0
234453  1  0
237454  1  0
237455  1  0
238456  1  0
238457  1  0
M  END
> <Name>
RCF2009 - Produto - (86)

> <Clean Energy>
RCF2009 - Produto - (86)

$$$$
RCF2009 - Produto - (90)
  SciTegic12132405553D

 97 96  0  0  0  0            999 V2000
    6.2916    0.1373    5.8256 C   0  0
    6.9085   -0.7627    6.9541 C   0  0
    7.9727   -1.5934    6.4597 O   0  0
    5.3699    1.2040    6.5149 C   0  0
    4.5610    1.9349    5.5859 O   0  0
    7.4257    0.8784    5.0336 C   0  0
    8.2539    1.6761    5.8910 O   0  0
    5.4904   -0.7816    4.8279 C   0  0
    4.1118   -0.9705    5.1845 O   0  0
    3.7534    2.9608    5.9751 C   0  0
    4.2361    4.1140    6.0511 O   0  0
    2.3266    2.7211    6.2759 C   0  0
    1.3803    3.2705    5.1791 C   0  0
   -0.0417    2.9822    5.4755 C   0  0
   -0.6643    2.1710    4.7494 O   0  0
   -0.6637    3.5920    6.5224 N   0  0
    9.3811    2.3351    5.5042 C   0  0
    9.4022    3.5809    5.6241 O   0  0
   10.6013    1.6107    5.0879 C   0  0
   11.6990    1.6839    6.2286 C   0  0
   12.8444    0.7912    5.9521 C   0  0
   13.0940   -0.1425    6.7525 O   0  0
   13.6121    0.9869    4.8451 N   0  0
    7.0252   -6.7517    8.6157 N   0  0
    6.6198   -6.1540    7.4609 C   0  0
    5.5069   -6.4244    6.9488 O   0  0
    7.4974   -5.1705    6.7873 C   0  0
    7.6234   -3.8458    7.5895 C   0  0
    8.4142   -2.8238    6.8592 C   0  0
    9.5868   -3.1035    6.5209 O   0  0
   -0.3747   -1.1883    2.2033 N   0  0
    0.6107   -0.3081    2.5319 C   0  0
    0.4386    0.9282    2.4092 O   0  0
    1.9294   -0.8005    2.9878 C   0  0
    1.9015   -1.5672    4.3402 C   0  0
    3.2876   -1.9405    4.6898 C   0  0
    3.7120   -3.0968    4.4579 O   0  0
   -2.0199    3.3512    6.9049 C   0  0
   -2.4363    4.2588    8.0786 C   0  0
   -3.7794    3.9834    8.4592 O   0  0
    6.2271   -7.6633    9.3702 C   0  0
    7.0107   -8.2341   10.5682 C   0  0
    6.1830   -9.1416   11.2893 O   0  0
   14.7298    0.1717    4.4886 C   0  0
   15.3892    0.6690    3.1877 C   0  0
   16.4821   -0.1753    2.8452 O   0  0
   -1.6906   -0.8271    1.7799 C   0  0
   -2.3612   -2.0106    1.0527 C   0  0
   -3.6610   -1.6487    0.5996 O   0  0
    7.3876   -0.1056    7.6799 H   0  0
    6.1401   -1.4645    7.2781 H   0  0
    4.6499    0.6686    7.1338 H   0  0
    6.0158    1.9604    6.9608 H   0  0
    8.0991    0.1224    4.6298 H   0  0
    6.9510    1.5977    4.3662 H   0  0
    5.4462   -0.2648    3.8692 H   0  0
    5.9177   -1.7825    4.8883 H   0  0
    2.2140    1.6370    6.2784 H   0  0
    2.1266    3.2919    7.1827 H   0  0
    1.4653    4.3570    5.1988 H   0  0
    1.6015    2.7230    4.2629 H   0  0
   -0.0956    4.2501    7.0365 H   0  0
   10.2977    0.5691    4.9837 H   0  0
   10.9811    2.1567    4.2243 H   0  0
   12.1176    2.6902    6.2166 H   0  0
   11.2502    1.2911    7.1409 H   0  0
   13.3415    1.7683    4.2652 H   0  0
    7.9554   -6.5090    8.9253 H   0  0
    8.4855   -5.6304    6.7725 H   0  0
    6.9938   -4.9305    5.8509 H   0  0
    6.6204   -3.4277    7.6755 H   0  0
    8.1994   -4.0695    8.4874 H   0  0
   -0.1154   -2.1617    2.2778 H   0  0
    2.2339   -1.5199    2.2277 H   0  0
    2.5194    0.1011    3.1525 H   0  0
    1.5705   -0.8724    5.1121 H   0  0
    1.3655   -2.5032    4.1833 H   0  0
   -2.6139    3.6372    6.0368 H   0  0
   -2.0351    2.3208    7.2601 H   0  0
   -1.8324    3.9879    8.9447 H   0  0
   -2.4457    5.2885    7.7213 H   0  0
   -3.8443    3.9701    9.4169 H   0  0
    5.4086   -7.0613    9.7649 H   0  0
    6.0180   -8.4867    8.6872 H   0  0
    7.8313   -8.8374   10.1798 H   0  0
    7.2149   -7.4168   11.2598 H   0  0
    6.3058   -9.0069   12.2318 H   0  0
   15.4477    0.3067    5.2976 H   0  0
   14.3093   -0.8145    4.2920 H   0  0
   14.6697    0.5503    2.3776 H   0  0
   15.8315    1.6454    3.3851 H   0  0
   16.9003   -0.4984    3.6467 H   0  0
   -2.2461   -0.6395    2.6988 H   0  0
   -1.5487   -0.0250    1.0555 H   0  0
   -1.7911   -2.2142    0.1463 H   0  0
   -2.5257   -2.8033    1.7826 H   0  0
   -4.2308   -1.4901    1.3557 H   0  0
  1  2  1  0
  2  3  1  0
  1  4  1  0
  4  5  1  0
  1  6  1  0
  6  7  1  0
  1  8  1  0
  8  9  1  0
  5 10  1  0
 10 11  2  0
 10 12  1  0
 12 13  1  0
 13 14  1  0
 14 15  2  0
 14 16  1  0
 17 18  2  0
 17 19  1  0
 19 20  1  0
 20 21  1  0
 21 22  2  0
 21 23  1  0
  7 17  1  0
 24 25  1  0
 25 26  2  0
 25 27  1  0
 27 28  1  0
 28 29  1  0
 29 30  2  0
 29  3  1  0
 31 32  1  0
 32 33  2  0
 32 34  1  0
 34 35  1  0
 35 36  1  0
 36 37  2  0
 36  9  1  0
 16 38  1  0
 38 39  1  0
 39 40  1  0
 24 41  1  0
 41 42  1  0
 42 43  1  0
 23 44  1  0
 44 45  1  0
 45 46  1  0
 31 47  1  0
 47 48  1  0
 48 49  1  0
  2 50  1  0
  2 51  1  0
  4 52  1  0
  4 53  1  0
  6 54  1  0
  6 55  1  0
  8 56  1  0
  8 57  1  0
 12 58  1  0
 12 59  1  0
 13 60  1  0
 13 61  1  0
 16 62  1  0
 19 63  1  0
 19 64  1  0
 20 65  1  0
 20 66  1  0
 23 67  1  0
 24 68  1  0
 27 69  1  0
 27 70  1  0
 28 71  1  0
 28 72  1  0
 31 73  1  0
 34 74  1  0
 34 75  1  0
 35 76  1  0
 35 77  1  0
 38 78  1  0
 38 79  1  0
 39 80  1  0
 39 81  1  0
 40 82  1  0
 41 83  1  0
 41 84  1  0
 42 85  1  0
 42 86  1  0
 43 87  1  0
 44 88  1  0
 44 89  1  0
 45 90  1  0
 45 91  1  0
 46 92  1  0
 47 93  1  0
 47 94  1  0
 48 95  1  0
 48 96  1  0
 49 97  1  0
M  END
> <Name>
RCF2009 - Produto - (90)

> <Clean Energy>
RCF2009 - Produto - (90)

$$$$
RCF2009 - R - (23)
  SciTegic12132405553D

 42 42  0  0  0  0            999 V2000
    0.0910    3.3836   -4.4286 O   0  0
   -0.3450    3.9384   -3.1772 C   0  0
   -0.3311    2.8570   -2.0549 C   0  0  1  0  0  0
    0.7472    3.1283   -1.1253 O   0  0
    0.9398    2.1324   -0.0896 C   0  0  2  0  0  0
    1.3989    0.8758   -0.6388 O   0  0
   -0.3605    1.9097    0.7478 C   0  0  2  0  0  0
   -0.2238    0.8517    1.6521 N   0  0
   -1.5733    1.6513   -0.1951 C   0  0  1  0  0  0
   -2.7827    1.5700    0.5797 O   0  0
   -1.6724    2.7744   -1.2690 C   0  0  1  0  0  0
   -1.9316    4.0423   -0.6306 O   0  0
    1.1592    3.7428   -5.1984 C   0  0
    1.9671    4.6318   -4.8387 O   0  0
    1.3458    3.0481   -6.4815 C   0  0
   -2.9815    4.8934   -0.8258 C   0  0
   -3.0267    6.1714   -0.1030 C   0  0
   -3.9106    4.6128   -1.6174 O   0  0
   -4.0062    1.1299    0.1523 C   0  0
   -5.1477    1.1508    1.0743 C   0  0
   -4.1839    0.6899   -1.0084 O   0  0
    0.4138    0.8935    2.6280 N   0  0
    1.0475    0.9378    3.6008 N   0  0
    2.5598    0.9478   -1.1717 N   0  0
    3.4949    0.6002   -0.5682 O   0  0
    2.7097    1.3445   -2.3671 O   0  0
    0.4026    4.6911   -2.9266 H   0  0
   -1.3807    4.2338   -3.3452 H   0  0
   -0.1198    1.8881   -2.5074 H   0  0
    1.7658    2.5186    0.5077 H   0  0
   -0.5326    2.7498    1.4207 H   0  0
   -1.5015    0.6765   -0.6776 H   0  0
   -2.5205    2.6112   -1.9340 H   0  0
    1.3220    1.9706   -6.3181 H   0  0
    0.5461    3.3294   -7.1667 H   0  0
    2.3075    3.3294   -6.9105 H   0  0
   -3.0200    5.9821    0.9705 H   0  0
   -2.1574    6.7716   -0.3715 H   0  0
   -3.9363    6.7087   -0.3715 H   0  0
   -4.7848    1.1442    2.1021 H   0  0
   -5.7368    2.0518    0.9028 H   0  0
   -5.7694    0.2721    0.9028 H   0  0
  1  2  1  0
  3  2  1  0
  3  4  1  0
  5  4  1  0
  5  6  1  0
  5  7  1  0
  7  8  1  0
  7  9  1  0
  9 10  1  0
  9 11  1  0
 11  3  1  0
 11 12  1  0
  1 13  1  0
 13 15  1  0
 13 14  2  0
 12 16  1  0
 16 17  1  0
 16 18  2  0
 10 19  1  0
 19 20  1  0
 19 21  2  0
  8 22  2  0
 22 23  2  0
  6 24  1  0
 24 25  2  0
 24 26  1  0
  2 27  1  0
  2 28  1  0
  3 29  1  0
  5 30  1  0
  7 31  1  0
  9 32  1  0
 11 33  1  0
 15 34  1  0
 15 35  1  0
 15 36  1  0
 17 37  1  0
 17 38  1  0
 17 39  1  0
 20 40  1  0
 20 41  1  0
 20 42  1  0
M  END
> <Name>
RCF2009 - R - (23)

> <Clean Energy>
RCF2009 - R - (23)

$$$$
RCF2009 - S - (23)
  SciTegic12132405553D

 42 42  0  0  0  0            999 V2000
   -2.5224    0.6278   -1.5799 O   0  0
   -2.7472    1.4874   -0.4516 C   0  0
   -3.0240    0.6592    0.8405 C   0  0  1  0  0  0
   -1.8754    0.7285    1.7216 O   0  0
   -1.9632   -0.0927    2.9151 C   0  0  1  0  0  0
   -0.7999    0.1210    3.7434 O   0  0
   -3.2239    0.2628    3.7600 C   0  0  2  0  0  0
   -3.3819   -0.6670    4.7899 N   0  0
   -4.4997    0.2438    2.8675 C   0  0  1  0  0  0
   -5.6318    0.6825    3.6394 O   0  0
   -4.3012    1.1277    1.6010 C   0  0  1  0  0  0
   -4.1494    2.5053    1.9967 O   0  0
   -1.4345    0.5681   -2.4003 C   0  0
   -0.4168    1.2717   -2.1996 O   0  0
   -1.4852   -0.3448   -3.5509 C   0  0
   -4.9311    3.5775    1.6725 C   0  0
   -4.5591    4.9094    2.1681 C   0  0
   -5.9552    3.4555    0.9608 O   0  0
   -6.9530    0.5197    3.3305 C   0  0
   -7.9834    1.0900    4.2039 C   0  0
   -7.3155   -0.1181    2.3153 O   0  0
   -3.3229   -0.4420    5.9306 N   0  0
   -3.2675   -0.2372    7.0726 N   0  0
    0.2959   -0.2794    3.2162 N   0  0
    0.7478   -1.3099    3.5229 O   0  0
    0.9405    0.4596    2.4118 O   0  0
   -1.8063    2.0198   -0.3125 H   0  0
   -3.6548    2.0394   -0.6958 H   0  0
   -3.1379   -0.3910    0.5716 H   0  0
   -1.9561   -1.1231    2.5596 H   0  0
   -3.0976    1.2145    4.2762 H   0  0
   -4.7585   -0.7713    2.5663 H   0  0
   -5.1803    1.1096    0.9569 H   0  0
   -1.4696   -1.3758   -3.1977 H   0  0
   -2.4010   -0.1678   -4.1150 H   0  0
   -0.6228   -0.1678   -4.1935 H   0  0
   -4.5603    4.9049    3.2581 H   0  0
   -3.5633    5.1664    1.8069 H   0  0
   -5.2776    5.6452    1.8069 H   0  0
   -7.7032    0.9349    5.2458 H   0  0
   -8.0756    2.1582    4.0076 H   0  0
   -8.9375    0.6009    4.0076 H   0  0
  1  2  1  0
  3  2  1  0
  3  4  1  0
  5  4  1  0
  5  6  1  0
  5  7  1  0
  7  8  1  0
  7  9  1  0
  9 10  1  0
  9 11  1  0
 11  3  1  0
 11 12  1  0
  1 13  1  0
 13 15  1  0
 13 14  2  0
 12 16  1  0
 16 17  1  0
 16 18  2  0
 10 19  1  0
 19 20  1  0
 19 21  2  0
  8 22  2  0
 22 23  2  0
  6 24  1  0
 24 25  2  0
 24 26  1  0
  2 27  1  0
  2 28  1  0
  3 29  1  0
  5 30  1  0
  7 31  1  0
  9 32  1  0
 11 33  1  0
 15 34  1  0
 15 35  1  0
 15 36  1  0
 17 37  1  0
 17 38  1  0
 17 39  1  0
 20 40  1  0
 20 41  1  0
 20 42  1  0
M  END
> <Name>
RCF2009 - S - (23)

> <Clean Energy>
RCF2009 - S - (23)

$$$$
RCF2009 - Subproduto - (24)
  SciTegic12132405553D

 46 46  0  0  0  0            999 V2000
   -2.8660    0.6250   -5.7857 O   0  0
   -3.0723    1.3816   -4.5372 C   0  0
   -3.0759    0.4034   -3.2697 C   0  0  1  0  0  0
   -1.7713    0.5191   -2.5637 O   0  0
   -1.5865   -0.3630   -1.3822 C   0  0  2  0  0  0
   -1.4421   -1.7650   -1.8014 N   0  0
   -2.7526   -0.1628   -0.2977 C   0  0  2  0  0  0
   -2.6581   -1.0882    0.7931 N   0  0
   -4.1896   -0.2760   -0.9887 C   0  0  1  0  0  0
   -5.2466    0.0618   -0.0099 O   0  0
   -4.2739    0.6996   -2.2524 C   0  0  1  0  0  0
   -4.1848    2.0952   -1.7726 O   0  0
   -2.7604    1.1649   -7.0754 C   0  0
   -2.7515    2.4384   -7.2657 O   0  0
   -2.6668    0.2268   -8.2538 C   0  0
   -5.1357    3.1189   -1.8723 C   0  0
   -4.8320    4.4588   -1.2491 C   0  0
   -6.2617    2.9416   -2.4686 O   0  0
   -6.6261   -0.1765   -0.1255 C   0  0
   -7.5681    0.3314    0.9395 C   0  0
   -7.1110   -0.8442   -1.1139 O   0  0
   -1.7357   -1.1331    1.5543 N   0  0
   -0.8113   -1.1785    2.3055 N   0  0
   -0.3372   -2.2817   -2.4789 C   0  0
    0.6769   -1.5454   -2.7728 O   0  0
   -0.3067   -3.7338   -2.8840 C   0  0
   -2.2022    2.0330   -4.4555 H   0  0
   -4.0690    1.8128   -4.6306 H   0  0
   -3.1578   -0.6294   -3.6085 H   0  0
   -0.6128   -0.1050   -0.9655 H   0  0
   -2.1706   -2.4365   -1.6055 H   0  0
   -2.6180    0.7839    0.2254 H   0  0
   -4.4027   -1.3042   -1.2813 H   0  0
   -5.2340    0.6129   -2.7610 H   0  0
   -2.6948   -0.8041   -7.9008 H   0  0
   -3.5062    0.4034   -8.9264 H   0  0
   -1.7318    0.4034   -8.7856 H   0  0
   -4.8527    4.3675   -0.1631 H   0  0
   -3.8440    4.7918   -1.5670 H   0  0
   -5.5800    5.1852   -1.5670 H   0  0
   -7.1567    0.1096    1.9242 H   0  0
   -7.6915    1.4090    0.8316 H   0  0
   -8.5362   -0.1578    0.8316 H   0  0
   -0.2935   -4.3598   -1.9918 H   0  0
   -1.1920   -3.9644   -3.4766 H   0  0
    0.5876   -3.9270   -3.4766 H   0  0
  1  2  1  0
  3  2  1  0
  3  4  1  0
  5  4  1  0
  5  6  1  0
  5  7  1  0
  7  8  1  0
  7  9  1  0
  9 10  1  0
  9 11  1  0
 11  3  1  0
 11 12  1  0
  1 13  1  0
 13 15  1  0
 13 14  2  0
 12 16  1  0
 16 17  1  0
 16 18  2  0
 10 19  1  0
 19 20  1  0
 19 21  2  0
  8 22  2  0
 22 23  2  0
  6 24  1  0
 24 26  1  0
 24 25  2  0
  2 27  1  0
  2 28  1  0
  3 29  1  0
  5 30  1  0
  6 31  1  0
  7 32  1  0
  9 33  1  0
 11 34  1  0
 15 35  1  0
 15 36  1  0
 15 37  1  0
 17 38  1  0
 17 39  1  0
 17 40  1  0
 20 41  1  0
 20 42  1  0
 20 43  1  0
 26 44  1  0
 26 45  1  0
 26 46  1  0
M  END
> <Name>
RCF2009 - Subproduto - (24)

> <Clean Energy>
RCF2009 - Subproduto - (24)

$$$$
MCP2009_1S
  SciTegic12132405553D

 86 90  0  0  0  0            999 V2000
   -0.0076   -1.4899    0.1589 C   0  0  1  0  0  0
   -0.4414    0.0090   -0.0021 C   0  0  1  0  0  0
    0.9090    0.8268   -0.2798 C   0  0  2  0  0  0
    1.8248    0.6638    0.8156 O   0  0
    2.2156   -0.6971    0.9921 C   0  0  2  0  0  0
    0.9580   -1.5715    1.3259 C   0  0  2  0  0  0
   -1.4070    0.1019   -1.1172 O   0  0
   -1.1175   -2.3729    0.4782 O   0  0
    1.3937   -2.9176    1.4612 N   0  0
    0.7121    2.3335   -0.4467 C   0  0
    1.3568   -3.5379    2.6526 C   0  0
    0.8441   -2.9148    3.5883 O   0  0
    1.9729    2.9487   -0.6905 O   0  0
    1.7970    4.3190   -0.8400 C   0  0
    2.9807    5.1971   -1.1067 C   0  0
    0.6675    4.8150   -0.7538 O   0  0
   -2.3974    1.1617   -1.1841 C   0  0
   -2.6812    2.1602   -0.0654 C   0  0
   -1.9884   -2.6378   -0.5894 C   0  0
   -3.1752   -3.5201   -0.3629 C   0  0
   -1.7635   -2.2018   -1.7236 O   0  0
   -3.1329    1.1928   -2.1764 O   0  0
    3.1758   -0.7491    2.0579 O   0  0
    4.5648   -0.8909    1.8413 C   0  0
    5.3558    0.1611    2.0326 C   0  0
    5.1691   -2.1952    1.4336 C   0  0
    6.4878   -2.2920    1.2552 C   0  0
    7.3356   -1.1195    1.4606 C   0  0
    6.8009    0.0433    1.8297 C   0  0
    8.7751   -1.2264    1.2624 C   0  0
    4.2852   -3.2496    1.2702 N   0  0
    4.5283   -4.5168    0.9463 C   0  0
    3.3061   -5.4154    0.8066 C   0  0  1  0  0  0
    3.6922   -6.6547   -0.0512 C   0  0
    2.4795   -7.5224   -0.3038 C   0  0
    1.2534   -6.9441   -0.8723 C   0  0
    0.1920   -7.7173   -1.0880 C   0  0
    0.2464   -9.1429   -0.7617 C   0  0
    1.3582   -9.6678   -0.2502 C   0  0
    2.5258   -8.8204   -0.0121 C   0  0
    5.6624   -4.9572    0.7319 O   0  0
    9.4972   -0.2380    1.4359 O   0  0
    9.3309   -2.4431    0.8783 O   0  0
   10.7465   -2.3063    0.7470 C   0  0
    1.9390   -4.9297    2.9969 C   0  0
    1.5577   -5.3695    4.3536 C   0  0
    1.9821   -6.5152    4.8676 C   0  0
    2.8460   -7.3695    4.1109 C   0  0
    3.2259   -7.0243    2.8890 C   0  0
    2.7638   -5.7423    2.2538 C   0  0
    0.4942   -1.8460   -0.7510 H   0  0
   -0.9159    0.3264    0.9325 H   0  0
    1.3695    0.4365   -1.1979 H   0  0
    2.6842   -1.0591    0.0664 H   0  0
    0.4798   -1.2183    2.2476 H   0  0
    1.7532   -3.3330    0.6918 H   0  0
    0.0426    2.5265   -1.2938 H   0  0
    0.2745    2.7478    0.4720 H   0  0
    2.6797    6.2528   -1.1703 H   0  0
    3.4582    4.8706   -2.0419 H   0  0
    3.7229    5.0449   -0.3097 H   0  0
   -3.7292    2.4880   -0.1126 H   0  0
   -2.0471    3.0419   -0.2250 H   0  0
   -2.4301    1.7360    0.9156 H   0  0
   -2.8152   -4.5327   -0.1290 H   0  0
   -3.8207   -3.5436   -1.2527 H   0  0
   -3.7222   -3.1693    0.5241 H   0  0
    4.9373    1.0886    2.3310 H   0  0
    6.9280   -3.2072    0.9682 H   0  0
    7.4247    0.8876    1.9781 H   0  0
    3.4311   -3.0418    1.3978 H   0  0
    2.5525   -4.8360    0.3176 H   0  0
    4.0365   -6.2583   -1.0157 H   0  0
    4.4925   -7.2359    0.4263 H   0  0
    1.2113   -5.9111   -1.1114 H   0  0
   -0.6930   -7.3001   -1.4972 H   0  0
   -0.5998   -9.7586   -0.9336 H   0  0
    1.3967  -10.7009   -0.0147 H   0  0
    3.4101   -9.2382    0.3974 H   0  0
   11.1810   -3.2696    0.4436 H   0  0
   11.1754   -1.9979    1.7115 H   0  0
   10.9717   -1.5460   -0.0148 H   0  0
    0.9239   -4.7519    4.9364 H   0  0
    1.6852   -6.7970    5.8458 H   0  0
    3.1893   -8.2798    4.5322 H   0  0
    3.8724   -7.6750    2.3687 H   0  0
  1  2  1  0
  2  3  1  0
  3  4  1  0
  4  5  1  0
  5  6  1  0
  1  6  1  0
  2  7  1  0
  1  8  1  0
  6  9  1  0
  3 10  1  0
  9 11  1  0
 11 12  2  0
 10 13  1  0
 14 15  1  0
 13 14  1  0
 14 16  2  0
 17 18  1  0
  7 17  1  0
 19 20  1  0
  8 19  1  0
 19 21  2  0
 17 22  2  0
  5 23  1  0
 23 24  1  0
 26 27  2  0
 27 28  1  0
 28 29  2  0
 25 29  1  0
 25 24  2  0
 24 26  1  0
 28 30  1  0
 26 31  1  0
 32 33  1  0
 33 34  1  0
 34 35  1  0
 31 32  1  0
 36 37  2  0
 37 38  1  0
 38 39  2  0
 39 40  1  0
 35 36  1  0
 35 40  2  0
 32 41  2  0
 30 42  2  0
 30 43  1  0
 43 44  1  0
 11 45  1  0
 46 47  2  0
 47 48  1  0
 48 49  2  0
 49 50  1  0
 45 46  1  0
 45 50  2  0
 33 50  1  0
  1 51  1  0
  2 52  1  0
  3 53  1  0
  5 54  1  0
  6 55  1  0
  9 56  1  0
 10 57  1  0
 10 58  1  0
 15 59  1  0
 15 60  1  0
 15 61  1  0
 18 62  1  0
 18 63  1  0
 18 64  1  0
 20 65  1  0
 20 66  1  0
 20 67  1  0
 25 68  1  0
 27 69  1  0
 29 70  1  0
 31 71  1  0
 33 72  1  0
 34 73  1  0
 34 74  1  0
 36 75  1  0
 37 76  1  0
 38 77  1  0
 39 78  1  0
 40 79  1  0
 44 80  1  0
 44 81  1  0
 44 82  1  0
 46 83  1  0
 47 84  1  0
 48 85  1  0
 49 86  1  0
M  END
> <Name>
MCP2009_1S

> <Clean Energy>
109.594

$$$$
MCP2009_1R
  SciTegic12132405553D

 86 90  0  0  0  0            999 V2000
    0.0744   -1.3205    0.2796 C   0  0  1  0  0  0
   -0.3943    0.1705    0.1519 C   0  0  1  0  0  0
    0.9432    1.0243   -0.0644 C   0  0  2  0  0  0
    1.8312    0.8431    1.0513 O   0  0
    2.2349   -0.5179    1.1940 C   0  0  2  0  0  0
    1.0164   -1.4079    1.4663 C   0  0  2  0  0  0
   -1.3336    0.2743   -0.9844 O   0  0
   -1.0194   -2.2391    0.5449 O   0  0
    1.4875   -2.7265    1.5830 N   0  0
    0.7211    2.5311   -0.1915 C   0  0
    1.1134   -3.4946    2.6099 C   0  0
    0.3046   -3.0093    3.4081 O   0  0
    1.9763    3.1763   -0.3822 O   0  0
    1.7789    4.5468   -0.4968 C   0  0
    2.9529    5.4532   -0.7054 C   0  0
    0.6385    5.0198   -0.4278 O   0  0
   -2.3436    1.3152   -1.0483 C   0  0
   -2.6760    2.2771    0.0889 C   0  0
   -1.8544   -2.4945   -0.5519 C   0  0
   -3.0247   -3.4101   -0.3811 C   0  0
   -1.6104   -2.0214   -1.6672 O   0  0
   -3.0546    1.3585   -2.0579 O   0  0
    3.1659   -0.6129    2.2602 O   0  0
    4.4980   -0.7333    1.9479 C   0  0
    5.2632    0.3545    1.9343 C   0  0
    5.0651   -2.0448    1.5646 C   0  0
    6.3433   -2.1170    1.1806 C   0  0
    7.1741   -0.9142    1.1700 C   0  0
    6.6638    0.2590    1.5360 C   0  0
    8.5706   -1.0048    0.7647 C   0  0
    4.2062   -3.1725    1.6340 N   0  0
    4.3326   -4.2812    0.8827 C   0  0
    3.3272   -5.4804    0.9358 C   0  0  2  0  0  0
    2.2635   -5.3532   -0.2119 C   0  0
    2.9381   -5.2446   -1.5404 C   0  0
    3.6814   -6.3782   -2.0912 C   0  0
    4.2776   -6.2675   -3.2761 C   0  0
    4.1872   -5.0126   -4.0267 C   0  0
    3.5077   -3.9830   -3.5246 C   0  0
    2.8529   -4.1049   -2.2241 C   0  0
    5.2591   -4.3692    0.0697 O   0  0
    9.2784    0.0089    0.7577 O   0  0
    9.1018   -2.2346    0.3872 O   0  0
   10.4770   -2.0779    0.0349 C   0  0
    1.6399   -4.9026    2.9344 C   0  0
    1.0510   -5.4243    4.1879 C   0  0
    1.3689   -6.6174    4.6705 C   0  0
    2.3071   -7.4452    3.9772 C   0  0
    2.8626   -7.0200    2.8517 C   0  0
    2.5485   -5.7011    2.2730 C   0  0
    0.6080   -1.6377   -0.6278 H   0  0
   -0.8996    0.4484    1.0830 H   0  0
    1.4363    0.6712   -0.9807 H   0  0
    2.7268   -0.8444    0.2666 H   0  0
    0.4983   -1.0976    2.3817 H   0  0
    2.1085   -3.0199    0.9454 H   0  0
    0.0713    2.7369   -1.0509 H   0  0
    0.2508    2.9093    0.7265 H   0  0
    2.6355    6.5055   -0.7369 H   0  0
    3.4541    5.1699   -1.6424 H   0  0
    3.6817    5.2830    0.1002 H   0  0
   -3.7297    2.5826    0.0252 H   0  0
   -2.0589    3.1768   -0.0331 H   0  0
   -2.4380    1.8330    1.0643 H   0  0
   -2.6615   -4.3835   -0.0204 H   0  0
   -3.5757   -3.5231   -1.3259 H   0  0
   -3.6757   -3.0092    0.4092 H   0  0
    4.8489    1.2958    2.1934 H   0  0
    6.7702   -3.0438    0.9059 H   0  0
    7.2722    1.1273    1.5275 H   0  0
    3.4882   -3.1097    2.2330 H   0  0
    3.9012   -6.3863    0.7013 H   0  0
    1.6685   -6.2755   -0.1799 H   0  0
    1.6329   -4.4823   -0.0549 H   0  0
    3.7458   -7.2858   -1.5464 H   0  0
    4.8175   -7.0875   -3.6766 H   0  0
    4.6625   -4.9241   -4.9706 H   0  0
    3.4421   -3.0749   -4.0682 H   0  0
    2.3112   -3.2844   -1.8205 H   0  0
   10.8921   -3.0515   -0.2624 H   0  0
   11.0344   -1.6900    0.8999 H   0  0
   10.5619   -1.3714   -0.8034 H   0  0
    0.3541   -4.8286    4.7184 H   0  0
    0.9266   -6.9587    5.5718 H   0  0
    2.5578   -8.4002    4.3636 H   0  0
    3.5545   -7.6482    2.3513 H   0  0
  1  2  1  0
  2  3  1  0
  3  4  1  0
  4  5  1  0
  5  6  1  0
  1  6  1  0
  2  7  1  0
  1  8  1  0
  6  9  1  0
  3 10  1  0
  9 11  1  0
 11 12  2  0
 10 13  1  0
 14 15  1  0
 13 14  1  0
 14 16  2  0
 17 18  1  0
  7 17  1  0
 19 20  1  0
  8 19  1  0
 19 21  2  0
 17 22  2  0
  5 23  1  0
 23 24  1  0
 26 27  2  0
 27 28  1  0
 28 29  2  0
 25 29  1  0
 25 24  2  0
 24 26  1  0
 28 30  1  0
 26 31  1  0
 32 33  1  0
 33 34  1  0
 34 35  1  0
 31 32  1  0
 36 37  2  0
 37 38  1  0
 38 39  2  0
 39 40  1  0
 35 36  1  0
 35 40  2  0
 32 41  2  0
 30 42  2  0
 30 43  1  0
 43 44  1  0
 11 45  1  0
 46 47  2  0
 47 48  1  0
 48 49  2  0
 49 50  1  0
 45 46  1  0
 45 50  2  0
 33 50  1  0
  1 51  1  0
  2 52  1  0
  3 53  1  0
  5 54  1  0
  6 55  1  0
  9 56  1  0
 10 57  1  0
 10 58  1  0
 15 59  1  0
 15 60  1  0
 15 61  1  0
 18 62  1  0
 18 63  1  0
 18 64  1  0
 20 65  1  0
 20 66  1  0
 20 67  1  0
 25 68  1  0
 27 69  1  0
 29 70  1  0
 31 71  1  0
 33 72  1  0
 34 73  1  0
 34 74  1  0
 36 75  1  0
 37 76  1  0
 38 77  1  0
 39 78  1  0
 40 79  1  0
 44 80  1  0
 44 81  1  0
 44 82  1  0
 46 83  1  0
 47 84  1  0
 48 85  1  0
 49 86  1  0
M  END
> <Name>
MCP2009_1R

> <Clean Energy>
113.135

$$$$
MCP2009_4S
  SciTegic12132405553D

 37 38  0  0  0  0            999 V2000
    0.1687   -0.6120    1.4852 C   0  0  1  0  0  0
   -0.3092    0.7130    0.8899 C   0  0  1  0  0  0
    0.0892    0.7783   -0.6004 C   0  0  2  0  0  0
    1.5300    0.6732   -0.7298 O   0  0
    2.0620   -0.5759   -0.1982 C   0  0  1  0  0  0
    1.7020   -0.6756    1.3263 C   0  0  2  0  0  0
   -1.7253    0.8084    1.0132 O   0  0
   -0.1777   -0.6662    2.8658 O   0  0
    2.2754   -1.8985    1.9185 N   0  0
   -0.3760    2.1125   -1.2399 C   0  0
    1.5704   -1.7102   -0.9739 O   0  0
    0.2411    3.2517   -0.6050 O   0  0
    1.8508   -3.1498    1.6348 C   0  0
    2.4266   -4.4130    2.2347 C   0  0
    0.9289   -3.3138    0.8290 O   0  0
    1.7950   -5.6589    1.7613 C   0  0
    2.1969   -6.8464    2.2015 C   0  0
    3.2722   -6.9369    3.1627 C   0  0
    3.8596   -5.8319    3.6069 C   0  0
    3.4349   -4.5045    3.1366 C   0  0
    4.4691   -2.9014    3.9437 I   0  0
   -0.3019   -1.4477    0.9545 H   0  0
    0.1646    1.5444    1.4293 H   0  0
   -0.3878   -0.0558   -1.1310 H   0  0
    3.1561   -0.5619   -0.2943 H   0  0
    2.1378    0.1901    1.8439 H   0  0
   -2.1462    0.0566    0.5272 H   0  0
    0.2472    0.0916    3.3378 H   0  0
    2.9833   -1.7768    2.5347 H   0  0
   -0.0936    2.1089   -2.3021 H   0  0
   -1.4687    2.1956   -1.1545 H   0  0
    0.5927   -1.8055   -0.9362 H   0  0
   -0.0283    3.3196    0.3406 H   0  0
    1.0051   -5.6079    1.0563 H   0  0
    1.7279   -7.7289    1.8470 H   0  0
    3.5920   -7.8853    3.5133 H   0  0
    4.6479   -5.9076    4.3123 H   0  0
  1  2  1  0
  2  3  1  0
  3  4  1  0
  4  5  1  0
  5  6  1  0
  1  6  1  0
  2  7  1  0
  1  8  1  0
  6  9  1  0
  3 10  1  0
  5 11  1  0
 10 12  1  0
  9 13  1  0
 13 14  1  0
 13 15  2  0
 16 17  2  0
 17 18  1  0
 18 19  2  0
 19 20  1  0
 14 16  1  0
 14 20  2  0
 20 21  1  0
  1 22  1  0
  2 23  1  0
  3 24  1  0
  5 25  1  0
  6 26  1  0
  7 27  1  0
  8 28  1  0
  9 29  1  0
 10 30  1  0
 10 31  1  0
 11 32  1  0
 12 33  1  0
 16 34  1  0
 17 35  1  0
 18 36  1  0
 19 37  1  0
M  END
> <Name>
MCP2009_4S

> <Clean Energy>
9.7468

$$$$
MCP2009_5
  SciTegic12132405553D

 51 52  0  0  0  0            999 V2000
   -0.3431   -1.0335    0.3627 C   0  0  1  0  0  0
   -0.9106    0.4320    0.2898 C   0  0  1  0  0  0
    0.3337    1.3680   -0.0809 C   0  0  2  0  0  0
    1.3558    1.2477    0.9303 O   0  0
    1.8652   -0.0874    1.0429 C   0  0  1  0  0  0
    0.7436   -1.0571    1.4409 C   0  0  2  0  0  0
   -1.9827    0.4727   -0.7268 O   0  0
   -1.3520   -2.0032    0.7597 O   0  0
    1.2776   -2.3865    1.5311 N   0  0
    0.0003    2.8573   -0.1760 C   0  0
    0.8757   -3.1984    2.5120 C   0  0
    1.3471   -4.6150    2.7252 C   0  0
    0.0438   -2.7587    3.3135 O   0  0
    0.7405   -5.3011    3.8798 C   0  0
    1.0644   -6.5533    4.1845 C   0  0
    2.0281   -7.2694    3.3784 C   0  0
    2.5901   -6.6750    2.3320 C   0  0
    2.2489   -5.2904    1.9735 C   0  0
    3.2227   -4.5272    0.3132 I   0  0
    1.1786    3.5838   -0.5099 O   0  0
    0.8776    4.9378   -0.5948 C   0  0
    1.9555    5.9205   -0.9354 C   0  0
   -0.2760    5.3335   -0.3905 O   0  0
   -3.0584    1.4463   -0.6650 C   0  0
   -3.3153    2.3870    0.5089 C   0  0
   -2.3024   -2.3099   -0.2245 C   0  0
   -3.3966   -3.2787    0.0945 C   0  0
   -2.2223   -1.8367   -1.3634 O   0  0
   -3.8851    1.4415   -1.5832 O   0  0
    2.5790   -0.5811   -0.5012 Cl  0  0
    0.0909   -1.3307   -0.6001 H   0  0
   -1.3173    0.6846    1.2746 H   0  0
    0.7338    1.0468   -1.0503 H   0  0
    2.6430   -0.1099    1.8180 H   0  0
    0.2986   -0.7628    2.4001 H   0  0
    1.9120   -2.6689    0.8836 H   0  0
   -0.7578    3.0165   -0.9526 H   0  0
   -0.3834    3.2075    0.7921 H   0  0
    0.0327   -4.7874    4.4788 H   0  0
    0.6157   -7.0280    5.0199 H   0  0
    2.2859   -8.2687    3.6225 H   0  0
    3.2958   -7.2072    1.7460 H   0  0
    1.5591    6.9460   -0.9571 H   0  0
    2.3890    5.6469   -1.9082 H   0  0
    2.7656    5.8276   -0.1976 H   0  0
   -4.3865    2.6246    0.5712 H   0  0
   -2.7751    3.3239    0.3209 H   0  0
   -2.9367    1.9604    1.4471 H   0  0
   -2.9569   -4.1840    0.5380 H   0  0
   -3.9842   -3.5160   -0.8041 H   0  0
   -4.0409   -2.8343    0.8668 H   0  0
  1  2  1  0
  2  3  1  0
  3  4  1  0
  4  5  1  0
  5  6  1  0
  1  6  1  0
  2  7  1  0
  1  8  1  0
  6  9  1  0
  3 10  1  0
  9 11  1  0
 11 12  1  0
 11 13  2  0
 14 15  2  0
 15 16  1  0
 16 17  2  0
 17 18  1  0
 12 14  1  0
 12 18  2  0
 18 19  1  0
 10 20  1  0
 21 22  1  0
 20 21  1  0
 21 23  2  0
 24 25  1  0
  7 24  1  0
 26 27  1  0
  8 26  1  0
 26 28  2  0
 24 29  2  0
  5 30  1  0
  1 31  1  0
  2 32  1  0
  3 33  1  0
  5 34  1  0
  6 35  1  0
  9 36  1  0
 10 37  1  0
 10 38  1  0
 14 39  1  0
 15 40  1  0
 16 41  1  0
 17 42  1  0
 22 43  1  0
 22 44  1  0
 22 45  1  0
 25 46  1  0
 25 47  1  0
 25 48  1  0
 27 49  1  0
 27 50  1  0
 27 51  1  0
M  END
> <Name>
MCP2009_5

> <Clean Energy>
55.4439

$$$$
MCP2009_6
  SciTegic12132405553D

 86 89  0  0  0  0            999 V2000
    0.3926   -1.4011    1.2972 C   0  0  1  0  0  0
   -0.3213   -0.1667    0.6445 C   0  0  1  0  0  0
    0.6368    0.3365   -0.5197 C   0  0  2  0  0  0
    1.9039    0.7128    0.0272 O   0  0
    2.6118   -0.3793    0.6171 C   0  0  2  0  0  0
    1.7743   -0.9509    1.8254 C   0  0  2  0  0  0
   -1.6475   -0.5985    0.1531 O   0  0
   -0.3483   -1.9193    2.4407 O   0  0
    2.5377   -2.0248    2.5426 N   0  0
    0.1211    1.5638   -1.2721 C   0  0
    2.3622   -3.3702    2.4208 C   0  0
    3.1608   -4.4041    3.1866 C   0  0
    1.5356   -3.8384    1.6326 O   0  0
    2.8435   -5.8007    2.8324 C   0  0
    3.4702   -6.8184    3.4106 C   0  0
    4.4824   -6.5710    4.4103 C   0  0
    4.7869   -5.3246    4.7524 C   0  0
    4.1109   -4.1786    4.1282 C   0  0
    4.7217   -2.3162    4.8019 I   0  0
    1.0586    1.9277   -2.2801 O   0  0
    0.5933    3.0465   -2.9607 C   0  0
    1.4050    3.6313   -4.0754 C   0  0
   -0.4869    3.5609   -2.6483 O   0  0
   -2.7597    0.3285    0.0339 C   0  0
   -2.7587    1.7618    0.5577 C   0  0
   -1.5156   -2.6317    2.1208 C   0  0
   -2.3599   -3.1852    3.2242 C   0  0
   -1.8262   -2.8587    0.9465 O   0  0
   -3.8175   -0.1074   -0.4326 O   0  0
    3.8737    0.1611    1.0678 O   0  0
    5.0730   -0.6164    1.3709 C   0  0
    6.0129    0.1189    1.9633 C   0  0
    5.3870   -2.1207    1.0813 C   0  0
    6.5838   -2.5789    1.4874 C   0  0
    7.5450   -1.7201    2.1523 C   0  0
    7.2786   -0.4434    2.3705 C   0  0
    8.8255   -2.2717    2.5748 C   0  0
    4.4575   -3.0173    0.3679 N   0  0
    4.6868   -4.3098    0.0490 C   0  0
    3.6299   -5.0318   -0.6416 C   0  0
    3.8005   -6.3188   -0.9452 C   0  0
    2.7567   -7.1091   -1.6294 C   0  0
    1.4576   -6.5228   -2.0162 C   0  0
    0.5450   -7.2737   -2.6289 C   0  0
    0.8264   -8.6786   -2.9200 C   0  0
    1.9962   -9.2096   -2.5722 C   0  0
    3.0030   -8.3895   -1.8981 C   0  0
    5.7264   -4.9137    0.3248 O   0  0
    9.6541   -1.5473    3.1380 O   0  0
    9.1104   -3.6140    2.3420 O   0  0
   10.4131   -3.9232    2.8387 C   0  0
    0.5343   -2.1971    0.5557 H   0  0
   -0.4384    0.6025    1.4149 H   0  0
    0.7744   -0.4781   -1.2442 H   0  0
    2.7760   -1.1229   -0.1524 H   0  0
    1.6334   -0.1311    2.5425 H   0  0
    3.1942   -1.7168    3.1457 H   0  0
   -0.8443    1.3322   -1.7386 H   0  0
    0.0003    2.3982   -0.5676 H   0  0
    2.1041   -5.9977    2.0982 H   0  0
    3.2271   -7.8138    3.1374 H   0  0
    4.9820   -7.3847    4.8719 H   0  0
    5.5311   -5.1528    5.4880 H   0  0
    0.8880    4.4894   -4.5289 H   0  0
    1.6010    2.8480   -4.8218 H   0  0
    2.3848    3.9327   -3.6772 H   0  0
   -3.7822    2.0671    0.8167 H   0  0
   -2.4062    2.4198   -0.2473 H   0  0
   -2.0728    1.8705    1.4080 H   0  0
   -2.3267   -4.2830    3.1718 H   0  0
   -3.4072   -2.8957    3.0554 H   0  0
   -2.0001   -2.8379    4.2034 H   0  0
    5.8183    1.1428    2.1566 H   0  0
    6.8578   -3.5691    1.3227 H   0  0
    7.9962    0.1700    2.8530 H   0  0
    3.6159   -2.6811    0.0947 H   0  0
    2.7315   -4.5303   -0.8842 H   0  0
    4.7117   -6.7931   -0.6830 H   0  0
    1.2439   -5.5067   -1.8093 H   0  0
   -0.3877   -6.8521   -2.9062 H   0  0
    0.0979   -9.2750   -3.4084 H   0  0
    2.1989  -10.2289   -2.7837 H   0  0
    3.9336   -8.8161   -1.6215 H   0  0
   10.6338   -4.9841    2.6526 H   0  0
   10.4492   -3.7251    3.9198 H   0  0
   11.1583   -3.2980    2.3258 H   0  0
  1  2  1  0
  2  3  1  0
  3  4  1  0
  4  5  1  0
  5  6  1  0
  1  6  1  0
  2  7  1  0
  1  8  1  0
  6  9  1  0
  3 10  1  0
  9 11  1  0
 11 12  1  0
 11 13  2  0
 14 15  2  0
 15 16  1  0
 16 17  2  0
 17 18  1  0
 12 14  1  0
 12 18  2  0
 18 19  1  0
 10 20  1  0
 21 22  1  0
 20 21  1  0
 21 23  2  0
 24 25  1  0
  7 24  1  0
 26 27  1  0
  8 26  1  0
 26 28  2  0
 24 29  2  0
  5 30  1  0
 30 31  1  0
 33 34  2  0
 34 35  1  0
 35 36  2  0
 32 36  1  0
 32 31  2  0
 31 33  1  0
 35 37  1  0
 33 38  1  0
 39 40  1  0
 40 41  2  0
 41 42  1  0
 38 39  1  0
 43 44  2  0
 44 45  1  0
 45 46  2  0
 46 47  1  0
 42 43  1  0
 42 47  2  0
 39 48  2  0
 37 49  2  0
 37 50  1  0
 50 51  1  0
  1 52  1  0
  2 53  1  0
  3 54  1  0
  5 55  1  0
  6 56  1  0
  9 57  1  0
 10 58  1  0
 10 59  1  0
 14 60  1  0
 15 61  1  0
 16 62  1  0
 17 63  1  0
 22 64  1  0
 22 65  1  0
 22 66  1  0
 25 67  1  0
 25 68  1  0
 25 69  1  0
 27 70  1  0
 27 71  1  0
 27 72  1  0
 32 73  1  0
 34 74  1  0
 36 75  1  0
 38 76  1  0
 40 77  1  0
 41 78  1  0
 43 79  1  0
 44 80  1  0
 45 81  1  0
 46 82  1  0
 47 83  1  0
 51 84  1  0
 51 85  1  0
 51 86  1  0
M  END
> <Name>
MCP2009_6

> <Clean Energy>
68.4499

$$$$
MCP2009_7R
  SciTegic12132405553D

 37 38  0  0  0  0            999 V2000
    0.0528   -0.4355    1.4933 C   0  0  1  0  0  0
   -0.3280    0.9124    0.9007 C   0  0  1  0  0  0
    0.0640    0.9250   -0.5900 C   0  0  2  0  0  0
    1.4840    0.7184   -0.7282 O   0  0
    1.8898   -0.5549   -0.1873 C   0  0  2  0  0  0
    1.5676   -0.6250    1.3278 C   0  0  2  0  0  0
   -1.7327    1.1118    1.0314 O   0  0
   -0.2888   -0.4683    2.8758 O   0  0
    1.9944   -1.9060    1.8934 N   0  0
   -0.3085    2.2800   -1.2470 C   0  0
    1.5267   -3.1006    1.4601 C   0  0
    1.9856   -4.3729    2.0609 C   0  0
    0.6974   -3.1672    0.5446 O   0  0
    1.4383   -5.6297    1.5441 C   0  0
    1.8275   -6.7937    2.0598 C   0  0
    2.8044   -6.8224    3.1457 C   0  0
    3.3048   -5.6837    3.6190 C   0  0
    2.8779   -4.4035    3.0533 C   0  0
    0.3936    3.3811   -0.6333 O   0  0
    3.2951   -0.7141   -0.3706 O   0  0
    4.6824   -5.7232    5.1504 I   0  0
   -0.4845   -1.2310    0.9619 H   0  0
    0.2086    1.7122    1.4293 H   0  0
   -0.4746    0.1172   -1.1051 H   0  0
    1.3590   -1.3555   -0.7182 H   0  0
    2.0949    0.1849    1.8505 H   0  0
   -2.2105    0.3884    0.5550 H   0  0
    0.1961    0.2526    3.3479 H   0  0
    2.6547   -1.8805    2.6248 H   0  0
   -0.0346    2.2404   -2.3106 H   0  0
   -1.3917    2.4429   -1.1563 H   0  0
    0.7292   -5.6120    0.7560 H   0  0
    1.4282   -7.7006    1.6820 H   0  0
    3.1145   -7.7497    3.5565 H   0  0
    3.2803   -3.5041    3.4350 H   0  0
    0.1366    3.4826    0.3128 H   0  0
    3.5064   -0.6726   -1.3354 H   0  0
  1  2  1  0
  2  3  1  0
  3  4  1  0
  4  5  1  0
  5  6  1  0
  1  6  1  0
  2  7  1  0
  1  8  1  0
  6  9  1  0
  3 10  1  0
  9 11  1  0
 11 12  1  0
 11 13  2  0
 14 15  2  0
 15 16  1  0
 16 17  2  0
 17 18  1  0
 12 14  1  0
 12 18  2  0
 10 19  1  0
  5 20  1  0
 17 21  1  0
  1 22  1  0
  2 23  1  0
  3 24  1  0
  5 25  1  0
  6 26  1  0
  7 27  1  0
  8 28  1  0
  9 29  1  0
 10 30  1  0
 10 31  1  0
 14 32  1  0
 15 33  1  0
 16 34  1  0
 18 35  1  0
 19 36  1  0
 20 37  1  0
M  END
> <Name>
MCP2009_7R

> <Clean Energy>
1.179

$$$$
MCP2009_8
  SciTegic12132405553D

 51 52  0  0  0  0            999 V2000
   -0.2192   -1.0392    0.4299 C   0  0  1  0  0  0
   -0.8167    0.4125    0.3252 C   0  0  1  0  0  0
    0.4062    1.3639   -0.0759 C   0  0  2  0  0  0
    1.4364    1.2886    0.9314 O   0  0
    1.9730   -0.0331    1.0728 C   0  0  1  0  0  0
    0.8733   -1.0149    1.5011 C   0  0  2  0  0  0
   -1.8955    0.4072   -0.6851 O   0  0
   -1.2057   -2.0192    0.8570 O   0  0
    1.4327   -2.3296    1.6206 N   0  0
    0.0423    2.8436   -0.2047 C   0  0
    1.0807   -3.1136    2.6459 C   0  0
    1.6256   -4.4758    2.8117 C   0  0
    0.2729   -2.6916    3.4808 O   0  0
    1.1890   -5.2754    3.9583 C   0  0
    1.6616   -6.5073    4.1356 C   0  0
    2.6198   -7.0669    3.1844 C   0  0
    3.0193   -6.3440    2.1408 C   0  0
    2.5003   -4.9899    1.9449 C   0  0
    1.2037    3.5851   -0.5637 O   0  0
    0.8750    4.9304   -0.6795 C   0  0
    1.9308    5.9259   -1.0507 C   0  0
   -0.2852    5.3078   -0.4774 O   0  0
   -2.9901    1.3603   -0.6398 C   0  0
   -3.2590    2.3237    0.5128 C   0  0
   -2.1558   -2.3683   -0.1137 C   0  0
   -3.2288   -3.3505    0.2351 C   0  0
   -2.0920   -1.9209   -1.2639 O   0  0
   -3.8220    1.3167   -1.5523 O   0  0
    4.3699   -7.1321    0.7994 I   0  0
    2.6873   -0.5494   -0.4635 Cl  0  0
    0.2150   -1.3510   -0.5281 H   0  0
   -1.2226    0.6808    1.3063 H   0  0
    0.8069    1.0274   -1.0398 H   0  0
    2.7557   -0.0214    1.8432 H   0  0
    0.4288   -0.7068    2.4564 H   0  0
    2.0734   -2.6443    0.9400 H   0  0
   -0.7234    2.9686   -0.9801 H   0  0
   -0.3426    3.2094    0.7571 H   0  0
    0.4938   -4.8715    4.6497 H   0  0
    1.3427   -7.0827    4.9673 H   0  0
    2.9964   -8.0483    3.3255 H   0  0
    2.8220   -4.4213    1.1136 H   0  0
    1.5142    6.9427   -1.0926 H   0  0
    2.3620    5.6388   -2.0207 H   0  0
    2.7483    5.8655   -0.3177 H   0  0
   -4.3344    2.5413    0.5762 H   0  0
   -2.7388    3.2664    0.2989 H   0  0
   -2.8664    1.9275    1.4585 H   0  0
   -2.7631   -4.2537    0.6557 H   0  0
   -3.8417   -3.5911   -0.6454 H   0  0
   -3.8508   -2.9207    1.0335 H   0  0
  1  2  1  0
  2  3  1  0
  3  4  1  0
  4  5  1  0
  5  6  1  0
  1  6  1  0
  2  7  1  0
  1  8  1  0
  6  9  1  0
  3 10  1  0
  9 11  1  0
 11 12  1  0
 11 13  2  0
 14 15  2  0
 15 16  1  0
 16 17  2  0
 17 18  1  0
 12 14  1  0
 12 18  2  0
 10 19  1  0
 20 21  1  0
 19 20  1  0
 20 22  2  0
 23 24  1  0
  7 23  1  0
 25 26  1  0
  8 25  1  0
 25 27  2  0
 23 28  2  0
 17 29  1  0
  5 30  1  0
  1 31  1  0
  2 32  1  0
  3 33  1  0
  5 34  1  0
  6 35  1  0
  9 36  1  0
 10 37  1  0
 10 38  1  0
 14 39  1  0
 15 40  1  0
 16 41  1  0
 18 42  1  0
 21 43  1  0
 21 44  1  0
 21 45  1  0
 24 46  1  0
 24 47  1  0
 24 48  1  0
 26 49  1  0
 26 50  1  0
 26 51  1  0
M  END
> <Name>
MCP2009_8

> <Clean Energy>
50.2651

$$$$
MCP2009_9
  SciTegic12132405553D

 86 89  0  0  0  0            999 V2000
    0.3324   -1.7167    0.8244 C   0  0  1  0  0  0
   -0.4170   -0.4465    0.2890 C   0  0  1  0  0  0
    0.6292    0.3349   -0.6227 C   0  0  2  0  0  0
    1.7799    0.6953    0.1527 O   0  0
    2.4859   -0.4477    0.6360 C   0  0  2  0  0  0
    1.5490   -1.2550    1.6116 C   0  0  2  0  0  0
   -1.6155   -0.8859   -0.4570 O   0  0
   -0.4829   -2.4952    1.7423 O   0  0
    2.1773   -2.4290    2.1311 N   0  0
    0.0948    1.6363   -1.2221 C   0  0
    2.5284   -2.4822    3.4251 C   0  0
    3.1635   -3.6778    4.0124 C   0  0
    2.3296   -1.5002    4.1483 O   0  0
    3.5824   -3.6423    5.4129 C   0  0
    4.1655   -4.7051    5.9637 C   0  0
    4.3881   -5.9119    5.1680 C   0  0
    4.0049   -5.9461    3.8943 C   0  0
    3.3649   -4.7818    3.2936 C   0  0
    1.1124    2.2449   -2.0107 O   0  0
    0.6300    3.4303   -2.5523 C   0  0
    1.5154    4.2647   -3.4261 C   0  0
   -0.5265    3.7983   -2.3148 O   0  0
   -2.7914   -0.0422   -0.5822 C   0  0
   -3.0058    1.2696    0.1677 C   0  0
   -1.5116   -3.2341    1.1385 C   0  0
   -2.4266   -4.0497    1.9961 C   0  0
   -1.6423   -3.2653   -0.0901 O   0  0
   -3.7286   -0.4683   -1.2652 O   0  0
    3.6655    0.0437    1.3053 O   0  0
    4.8313   -0.7719    1.6498 C   0  0
    5.7054   -0.1107    2.4069 C   0  0
    5.1690   -2.2490    1.2503 C   0  0
    6.3164   -2.7586    1.7296 C   0  0
    7.2070   -1.9786    2.5673 C   0  0
    6.9219   -0.7261    2.8823 C   0  0
    8.4371   -2.5835    3.0604 C   0  0
    4.3045   -3.0690    0.3762 N   0  0
    4.5203   -4.3523    0.0232 C   0  0
    3.5345   -4.9909   -0.8327 C   0  0
    3.6973   -6.2667   -1.1856 C   0  0
    2.7261   -6.9750   -2.0454 C   0  0
    1.5116   -6.3143   -2.5654 C   0  0
    0.6635   -6.9926   -3.3355 C   0  0
    0.9321   -8.3910   -3.6679 C   0  0
    2.0257   -8.9887   -3.2005 C   0  0
    2.9613   -8.2487   -2.3535 C   0  0
    5.4897   -5.0160    0.4000 O   0  0
    9.2062   -1.9266    3.7716 O   0  0
    8.7418   -3.9000    2.7273 O   0  0
    9.9877   -4.2706    3.3189 C   0  0
    4.3165   -7.6402    2.7641 I   0  0
    0.6653   -2.3569   -0.0046 H   0  0
   -0.7130    0.1569    1.1535 H   0  0
    0.9373   -0.3225   -1.4475 H   0  0
    2.7797   -1.0459   -0.2234 H   0  0
    1.2441   -0.6083    2.4434 H   0  0
    2.3216   -3.1975    1.5359 H   0  0
   -0.7760    1.4217   -1.8534 H   0  0
   -0.1958    2.3182   -0.4111 H   0  0
    3.4228   -2.7676    5.9902 H   0  0
    4.4692   -4.6762    6.9792 H   0  0
    4.8542   -6.7583    5.6053 H   0  0
    3.0633   -4.8168    2.2844 H   0  0
    0.9884    5.1653   -3.7728 H   0  0
    1.8506    3.6538   -4.2767 H   0  0
    2.4199    4.5322   -2.8607 H   0  0
   -4.0802    1.4418    0.3222 H   0  0
   -2.6220    2.0870   -0.4566 H   0  0
   -2.4507    1.2781    1.1149 H   0  0
   -2.2900   -5.1110    1.7435 H   0  0
   -3.4681   -3.8011    1.7458 H   0  0
   -2.2199   -3.8776    3.0623 H   0  0
    5.4939    0.8915    2.6802 H   0  0
    6.6020   -3.7332    1.5006 H   0  0
    7.5883   -0.1714    3.4924 H   0  0
    3.5188   -2.6847    0.0166 H   0  0
    2.6947   -4.4384   -1.1609 H   0  0
    4.5496   -6.7923   -0.8365 H   0  0
    1.3080   -5.3023   -2.3300 H   0  0
   -0.2083   -6.5179   -3.7082 H   0  0
    0.2551   -8.9294   -4.2815 H   0  0
    2.2190  -10.0030   -3.4423 H   0  0
    3.8313   -8.7283   -1.9824 H   0  0
   10.2243   -5.3108    3.0530 H   0  0
    9.9154   -4.1787    4.4123 H   0  0
   10.7815   -3.6070    2.9463 H   0  0
  1  2  1  0
  2  3  1  0
  3  4  1  0
  4  5  1  0
  5  6  1  0
  1  6  1  0
  2  7  1  0
  1  8  1  0
  6  9  1  0
  3 10  1  0
  9 11  1  0
 11 12  1  0
 11 13  2  0
 14 15  2  0
 15 16  1  0
 16 17  2  0
 17 18  1  0
 12 14  1  0
 12 18  2  0
 10 19  1  0
 20 21  1  0
 19 20  1  0
 20 22  2  0
 23 24  1  0
  7 23  1  0
 25 26  1  0
  8 25  1  0
 25 27  2  0
 23 28  2  0
  5 29  1  0
 29 30  1  0
 32 33  2  0
 33 34  1  0
 34 35  2  0
 31 35  1  0
 31 30  2  0
 30 32  1  0
 34 36  1  0
 32 37  1  0
 38 39  1  0
 39 40  2  0
 40 41  1  0
 37 38  1  0
 42 43  2  0
 43 44  1  0
 44 45  2  0
 45 46  1  0
 41 42  1  0
 41 46  2  0
 38 47  2  0
 36 48  2  0
 36 49  1  0
 49 50  1  0
 17 51  1  0
  1 52  1  0
  2 53  1  0
  3 54  1  0
  5 55  1  0
  6 56  1  0
  9 57  1  0
 10 58  1  0
 10 59  1  0
 14 60  1  0
 15 61  1  0
 16 62  1  0
 18 63  1  0
 21 64  1  0
 21 65  1  0
 21 66  1  0
 24 67  1  0
 24 68  1  0
 24 69  1  0
 26 70  1  0
 26 71  1  0
 26 72  1  0
 31 73  1  0
 33 74  1  0
 35 75  1  0
 37 76  1  0
 39 77  1  0
 40 78  1  0
 42 79  1  0
 43 80  1  0
 44 81  1  0
 45 82  1  0
 46 83  1  0
 50 84  1  0
 50 85  1  0
 50 86  1  0
M  END
> <Name>
MCP2009_9

> <Clean Energy>
55.2368

$$$$
MCP2009_10
  SciTegic12132405553D

 37 38  0  0  0  0            999 V2000
   -3.8085    3.1422    0.4110 C   0  0
   -4.8021    2.2909    0.1863 C   0  0
   -4.5282    0.8781    0.0675 C   0  0
   -3.2822    0.4291    0.1695 C   0  0
   -2.1566    1.3465    0.3991 C   0  0
   -2.4217    2.6717    0.5395 C   0  0
   -1.4721    3.6676    0.8491 O   0  0
   -5.6222   -0.0559   -0.1665 C   0  0
   -6.9259    0.4193   -0.2733 O   0  0
   -7.8195   -0.6716   -0.4999 C   0  0
   -5.3894   -1.2658   -0.2691 O   0  0
   -0.8629    0.6962    0.4576 N   0  0
    0.3035    1.2239    0.0547 C   0  0
    1.5089    0.4117    0.1534 C   0  0
    2.6749    0.9101   -0.2613 C   0  0
    3.9333    0.1361   -0.1875 C   0  0
    3.9776   -1.2386    0.3505 C   0  0
    5.1334   -1.8977    0.3977 C   0  0
    6.3598   -1.2632   -0.0823 C   0  0
    6.3230   -0.0245   -0.5677 C   0  0
    5.0558    0.7051   -0.6222 C   0  0
    0.3823    2.3550   -0.4330 O   0  0
   -4.0193    4.1771    0.5059 H   0  0
   -5.7971    2.6473    0.1000 H   0  0
   -3.0939   -0.6100    0.0770 H   0  0
   -0.6047    3.3135    1.0127 H   0  0
   -8.8477   -0.2916   -0.5836 H   0  0
   -7.7564   -1.3772    0.3413 H   0  0
   -7.5412   -1.1853   -1.4315 H   0  0
   -0.8448   -0.2482    0.7664 H   0  0
    1.4473   -0.5648    0.5531 H   0  0
    2.7022    1.8934   -0.6571 H   0  0
    3.0953   -1.7069    0.7005 H   0  0
    5.1642   -2.8847    0.7842 H   0  0
    7.2794   -1.7902   -0.0437 H   0  0
    7.2135    0.4345   -0.9155 H   0  0
    5.0303    1.6919   -1.0095 H   0  0
  1  2  2  0
  2  3  1  0
  3  4  2  0
  4  5  1  0
  5  6  2  0
  1  6  1  0
  6  7  1  0
  8  9  1  0
  9 10  1  0
  3  8  1  0
  8 11  2  0
 12 13  1  0
 13 14  1  0
 14 15  2  0
 15 16  1  0
  5 12  1  0
 17 18  2  0
 18 19  1  0
 19 20  2  0
 20 21  1  0
 16 17  1  0
 16 21  2  0
 13 22  2  0
  1 23  1  0
  2 24  1  0
  4 25  1  0
  7 26  1  0
 10 27  1  0
 10 28  1  0
 10 29  1  0
 12 30  1  0
 14 31  1  0
 15 32  1  0
 17 33  1  0
 18 34  1  0
 19 35  1  0
 20 36  1  0
 21 37  1  0
M  END
> <Name>
MCP2009_10

> <Clean Energy>
7.47755

$$$$
MCP2009_11
  SciTegic12132405553D

 53 55  0  0  0  0            999 V2000
   -2.3726    3.9775    0.0026 C   0  0
   -3.5623    3.3939    0.0018 C   0  0
   -3.6695    1.9419    0.0008 C   0  0
   -2.5706    1.1741    0.0006 C   0  0
   -1.2439    1.8367    0.0015 C   0  0
   -1.1676    3.1741    0.0024 C   0  0
   -0.0859    0.9710    0.0013 N   0  0
    1.1962    1.3799    0.0020 C   0  0
    2.2439    0.3665    0.0017 C   0  0
    3.5243    0.7418    0.0023 C   0  0
    4.6324   -0.2380    0.0020 C   0  0
    4.3904   -1.6951    0.0010 C   0  0
    5.4189   -2.5403    0.0008 C   0  0
    6.7886   -2.0292    0.0015 C   0  0
    7.0097   -0.7167    0.0025 C   0  0
    5.8834    0.2174    0.0027 C   0  0
    1.5237    2.5700    0.0029 O   0  0
   -2.5243   -0.2898   -0.0004 O   0  0
   -3.6295   -1.2514   -0.0012 C   0  0
   -5.0873   -0.9783   -0.0009 C   0  0
   -5.9361   -2.0093   -0.0018 C   0  0
   -7.4115   -1.8316   -0.0016 C   0  0
   -3.3025   -2.4432   -0.0021 O   0  0
   -7.9908   -0.6250   -0.0005 C   0  0
   -9.4505   -0.5126   -0.0004 C   0  0
  -10.2055   -1.6081   -0.0013 C   0  0
   -9.5776   -2.9259   -0.0025 C   0  0
   -8.2508   -3.0318   -0.0027 C   0  0
   -2.2740    5.4312    0.0036 C   0  0
   -3.3010    6.1195    0.0037 O   0  0
   -1.0219    6.0389    0.0044 O   0  0
   -1.1752    7.4588    0.0053 C   0  0
   -4.4411    3.9871    0.0019 H   0  0
   -4.6043    1.5301    0.0001 H   0  0
   -0.2387    3.6611    0.0031 H   0  0
   -0.2465   -0.0084    0.0006 H   0  0
    1.9782   -0.6565    0.0009 H   0  0
    3.7570    1.7763    0.0031 H   0  0
    3.4026   -2.0752    0.0004 H   0  0
    5.2442   -3.5863    0.0000 H   0  0
    7.6064   -2.7044    0.0013 H   0  0
    8.0038   -0.3473    0.0030 H   0  0
    6.0635    1.2624    0.0035 H   0  0
   -5.4518   -0.0164   -0.0001 H   0  0
   -5.5448   -2.9945   -0.0027 H   0  0
   -7.4050    0.2553    0.0002 H   0  0
   -9.9072    0.4445    0.0005 H   0  0
  -11.2627   -1.5240   -0.0012 H   0  0
  -10.1789   -3.7994   -0.0032 H   0  0
   -7.7978   -3.9906   -0.0035 H   0  0
   -0.1839    7.9342    0.0060 H   0  0
   -1.7303    7.7664    0.9034 H   0  0
   -1.7297    7.7676   -0.8927 H   0  0
  1  2  2  0
  2  3  1  0
  3  4  2  0
  4  5  1  0
  5  6  2  0
  1  6  1  0
  7  8  1  0
  8  9  1  0
  9 10  2  0
 10 11  1  0
  5  7  1  0
 12 13  2  0
 13 14  1  0
 14 15  2  0
 15 16  1  0
 11 12  1  0
 11 16  2  0
  8 17  2  0
  4 18  1  0
 19 20  1  0
 20 21  2  0
 21 22  1  0
 18 19  1  0
 19 23  2  0
 24 25  1  0
 25 26  2  0
 26 27  1  0
 27 28  2  0
 28 22  1  0
 24 22  2  0
  1 29  1  0
 29 30  2  0
 29 31  1  0
 31 32  1  0
  2 33  1  0
  3 34  1  0
  6 35  1  0
  7 36  1  0
  9 37  1  0
 10 38  1  0
 12 39  1  0
 13 40  1  0
 14 41  1  0
 15 42  1  0
 16 43  1  0
 20 44  1  0
 21 45  1  0
 24 46  1  0
 25 47  1  0
 26 48  1  0
 27 49  1  0
 28 50  1  0
 32 51  1  0
 32 52  1  0
 32 53  1  0
M  END
> <Name>
MCP2009_11

> <Clean Energy>
8.59188

$$$$
MCP2009_13
  SciTegic12132405553D

 21 21  0  0  0  0            999 V2000
   -0.6306    1.4788    0.0496 C   0  0
   -1.9221    0.7977    0.1260 C   0  0
   -1.9721   -0.5323    0.1516 C   0  0
   -0.7352   -1.3117    0.1032 C   0  0
    0.4408   -0.6903    0.0336 C   0  0
    0.4954    0.7700    0.0055 C   0  0
   -0.5781    2.9351    0.0217 C   0  0
   -1.6264    3.5891    0.0628 O   0  0
    0.6514    3.5838   -0.0511 O   0  0
    0.4501    4.9979   -0.0655 C   0  0
    1.6221   -1.4283   -0.0128 N   0  0
   -0.7912   -2.6991    0.1301 O   0  0
   -2.8183    1.3633    0.1611 H   0  0
   -2.9084   -1.0270    0.2070 H   0  0
    1.4320    1.2636   -0.0499 H   0  0
    1.4235    5.5058   -0.1231 H   0  0
   -0.0692    5.3031    0.8545 H   0  0
   -0.1590    5.2720   -0.9391 H   0  0
    1.5908   -2.4215    0.0060 H   0  0
    2.4972   -0.9593   -0.0647 H   0  0
   -1.7357   -2.9881    0.1824 H   0  0
  1  2  1  0
  2  3  2  0
  3  4  1  0
  4  5  2  0
  5  6  1  0
  1  6  2  0
  1  7  1  0
  7  8  2  0
  7  9  1  0
  9 10  1  0
  5 11  1  0
  4 12  1  0
  2 13  1  0
  3 14  1  0
  6 15  1  0
 10 16  1  0
 10 17  1  0
 10 18  1  0
 11 19  1  0
 11 20  1  0
 12 21  1  0
M  END
> <Name>
MCP2009_13

> <Clean Energy>
-3.80272

$$$$
MCP2009_14RR
  SciTegic12132405553D

 87 91  0  0  0  0            999 V2000
    0.0344   -1.4988    0.1392 C   0  0  1  0  0  0
   -0.4161   -0.0046   -0.0132 C   0  0  1  0  0  0
    0.9274    0.8309   -0.2729 C   0  0  2  0  0  0
    1.8363    0.6690    0.8294 O   0  0
    2.2395   -0.6897    0.9979 C   0  0  2  0  0  0
    0.9907   -1.5776    1.3131 C   0  0  2  0  0  0
   -1.3733    0.0855   -1.1357 O   0  0
   -1.0661   -2.3988    0.4418 O   0  0
    1.4425   -2.9144    1.4414 N   0  0
    0.7146    2.3365   -0.4297 C   0  0
    1.3700   -3.5553    2.6206 C   0  0
    0.8125   -2.9559    3.5460 O   0  0
    1.9702    2.9680   -0.6585 O   0  0
    1.7795    4.3372   -0.7998 C   0  0
    2.9550    5.2308   -1.0507 C   0  0
    0.6436    4.8194   -0.7195 O   0  0
   -2.3752    1.1343   -1.2031 C   0  0
   -2.6798    2.1211   -0.0794 C   0  0
   -1.9233   -2.6674   -0.6357 C   0  0
   -3.0983   -3.5697   -0.4275 C   0  0
   -1.6943   -2.2189   -1.7642 O   0  0
   -3.1028    1.1645   -2.2012 O   0  0
    3.1937   -0.7447    2.0690 O   0  0
    4.5802   -0.8608    1.8420 C   0  0
    5.3539    0.2079    2.0092 C   0  0
    5.1983   -2.1558    1.4323 C   0  0
    6.5144   -2.2288    1.2233 C   0  0
    7.3446   -1.0394    1.4046 C   0  0
    6.7965    0.1154    1.7790 C   0  0
    8.7815   -1.1213    1.1776 C   0  0
    4.3256   -3.2278    1.2975 N   0  0
    4.5719   -4.4710    0.8860 C   0  0
    3.3553   -5.4119    0.7717 C   0  0  1  0  0  0
    3.7063   -6.6582   -0.1377 C   0  0  2  0  0  0
    2.4493   -7.4822   -0.3523 C   0  0
    1.2311   -6.8489   -0.8836 C   0  0
    0.1295   -7.5719   -1.0672 C   0  0
    0.1281   -8.9978   -0.7443 C   0  0
    1.2293   -9.5744   -0.2675 C   0  0
    2.4428   -8.7839   -0.0633 C   0  0
    5.6976   -4.8456    0.5465 O   0  0
    9.4888   -0.1189    1.3311 O   0  0
    9.3517   -2.3300    0.7890 O   0  0
   10.7616   -2.1683    0.6287 C   0  0
    1.9669   -4.9404    2.9655 C   0  0
    1.5718   -5.3851    4.3171 C   0  0
    1.9954   -6.5286    4.8344 C   0  0
    2.8691   -7.3757    4.0865 C   0  0
    3.2619   -7.0261    2.8702 C   0  0
    2.8079   -5.7450    2.2290 C   0  0
    4.7597   -7.4914    0.3799 O   0  0
    0.5485   -1.8413   -0.7691 H   0  0
   -0.9022    0.2996    0.9198 H   0  0
    1.3999    0.4532   -1.1901 H   0  0
    2.7183   -1.0392    0.0726 H   0  0
    0.4997   -1.2381    2.2331 H   0  0
    1.8426   -3.3066    0.6817 H   0  0
    0.0500    2.5282   -1.2810 H   0  0
    0.2646    2.7387    0.4884 H   0  0
    2.6432    6.2840   -1.1029 H   0  0
    3.4389    4.9211   -1.9883 H   0  0
    3.6961    5.0763   -0.2531 H   0  0
   -3.7309    2.4373   -0.1330 H   0  0
   -2.0544    3.0112   -0.2272 H   0  0
   -2.4320    1.6925    0.9005 H   0  0
   -2.7237   -4.5877   -0.2450 H   0  0
   -3.7556   -3.5648   -1.3090 H   0  0
   -3.6351   -3.2638    0.4820 H   0  0
    4.9231    1.1306    2.3048 H   0  0
    6.9656   -3.1373    0.9339 H   0  0
    7.4074    0.9720    1.9097 H   0  0
    3.4819   -3.0462    1.5059 H   0  0
    2.5866   -4.8354    0.3057 H   0  0
    4.0119   -6.2401   -1.1060 H   0  0
    1.2280   -5.8147   -1.1210 H   0  0
   -0.7474   -7.1135   -1.4490 H   0  0
   -0.7504   -9.5734   -0.8909 H   0  0
    1.2265  -10.6087   -0.0345 H   0  0
    3.3142   -9.2486    0.3190 H   0  0
   11.2074   -3.1253    0.3219 H   0  0
   11.2039   -1.8466    1.5827 H   0  0
   10.9577   -1.4085   -0.1416 H   0  0
    0.9279   -4.7722    4.8935 H   0  0
    1.6883   -6.8139    5.8084 H   0  0
    3.2094   -8.2868    4.5086 H   0  0
    3.9089   -7.6724    2.3608 H   0  0
    5.5875   -6.9796    0.4894 H   0  0
  1  2  1  0
  2  3  1  0
  3  4  1  0
  4  5  1  0
  5  6  1  0
  1  6  1  0
  2  7  1  0
  1  8  1  0
  6  9  1  0
  3 10  1  0
  9 11  1  0
 11 12  2  0
 10 13  1  0
 14 15  1  0
 13 14  1  0
 14 16  2  0
 17 18  1  0
  7 17  1  0
 19 20  1  0
  8 19  1  0
 19 21  2  0
 17 22  2  0
  5 23  1  0
 23 24  1  0
 26 27  2  0
 27 28  1  0
 28 29  2  0
 25 29  1  0
 25 24  2  0
 24 26  1  0
 28 30  1  0
 26 31  1  0
 32 33  1  0
 33 34  1  0
 34 35  1  0
 31 32  1  0
 36 37  2  0
 37 38  1  0
 38 39  2  0
 39 40  1  0
 35 36  1  0
 35 40  2  0
 32 41  2  0
 30 42  2  0
 30 43  1  0
 43 44  1  0
 11 45  1  0
 46 47  2  0
 47 48  1  0
 48 49  2  0
 49 50  1  0
 45 46  1  0
 45 50  2  0
 33 50  1  0
 34 51  1  0
  1 52  1  0
  2 53  1  0
  3 54  1  0
  5 55  1  0
  6 56  1  0
  9 57  1  0
 10 58  1  0
 10 59  1  0
 15 60  1  0
 15 61  1  0
 15 62  1  0
 18 63  1  0
 18 64  1  0
 18 65  1  0
 20 66  1  0
 20 67  1  0
 20 68  1  0
 25 69  1  0
 27 70  1  0
 29 71  1  0
 31 72  1  0
 33 73  1  0
 34 74  1  0
 36 75  1  0
 37 76  1  0
 38 77  1  0
 39 78  1  0
 40 79  1  0
 44 80  1  0
 44 81  1  0
 44 82  1  0
 46 83  1  0
 47 84  1  0
 48 85  1  0
 49 86  1  0
 51 87  1  0
M  END
> <Name>
MCP2009_14RR

> <Clean Energy>
110.88

$$$$
MCP2009_14SR
  SciTegic12132405553D

 87 91  0  0  0  0            999 V2000
    0.0828   -1.2672    0.3325 C   0  0  1  0  0  0
   -0.3965    0.2209    0.2201 C   0  0  1  0  0  0
    0.9321    1.0819   -0.0125 C   0  0  2  0  0  0
    1.8368    0.8983    1.0892 O   0  0
    2.2493   -0.4619    1.2170 C   0  0  2  0  0  0
    1.0451   -1.3587    1.5021 C   0  0  2  0  0  0
   -1.3544    0.3240   -0.9007 O   0  0
   -1.0001   -2.1941    0.6119 O   0  0
    1.5104   -2.6877    1.5987 N   0  0
    0.7016    2.5882   -0.1293 C   0  0
    1.1627   -3.4456    2.6351 C   0  0
    0.3979   -2.9493    3.4690 O   0  0
    1.9511    3.2391   -0.3363 O   0  0
    1.7470    4.6091   -0.4434 C   0  0
    2.9143    5.5205   -0.6671 C   0  0
    0.6059    5.0776   -0.3559 O   0  0
   -2.3703    1.3600   -0.9450 C   0  0
   -2.6892    2.3165    0.2005 C   0  0
   -1.8506   -2.4513   -0.4716 C   0  0
   -3.0090   -3.3785   -0.2855 C   0  0
   -1.6289   -1.9717   -1.5887 O   0  0
   -3.0975    1.4031   -1.9430 O   0  0
    3.1931   -0.5563    2.2652 O   0  0
    4.5092   -0.6683    1.9214 C   0  0
    5.2704    0.4223    1.8988 C   0  0
    5.0637   -1.9711    1.5074 C   0  0
    6.3306   -2.0350    1.0846 C   0  0
    7.1590   -0.8310    1.0633 C   0  0
    6.6580    0.3362    1.4588 C   0  0
    8.5431   -0.9143    0.6161 C   0  0
    4.2137   -3.1114    1.5946 N   0  0
    4.3118   -4.1899    0.7986 C   0  0
    3.3570   -5.4359    0.8812 C   0  0  2  0  0  0
    2.3859   -5.5103   -0.3927 C   0  0  2  0  0  0
    3.2088   -5.4920   -1.6543 C   0  0
    4.0956   -6.6166   -1.9675 C   0  0
    4.8219   -6.6023   -3.0825 C   0  0
    4.7346   -5.4646   -3.9978 C   0  0
    3.9276   -4.4437   -3.7167 C   0  0
    3.1279   -4.4572   -2.4927 C   0  0
    5.1922   -4.2206   -0.0677 O   0  0
    9.2490    0.1006    0.6007 O   0  0
    9.0649   -2.1386    0.2091 O   0  0
   10.4291   -1.9756   -0.1807 C   0  0
    1.6483   -4.8641    2.9059 C   0  0
    1.0418   -5.4137    4.1393 C   0  0
    1.3183   -6.6337    4.5758 C   0  0
    2.2267   -7.4635    3.8514 C   0  0
    2.7976   -7.0142    2.7433 C   0  0
    2.5319   -5.6625    2.2107 C   0  0
    1.4164   -4.4708   -0.4671 O   0  0
    0.6025   -1.5771   -0.5848 H   0  0
   -0.8884    0.4916    1.1605 H   0  0
    1.4130    0.7356   -0.9378 H   0  0
    2.7282   -0.7787    0.2797 H   0  0
    0.5420   -1.0554    2.4277 H   0  0
    2.0922   -3.0074    0.9252 H   0  0
    0.0381    2.7948   -0.9780 H   0  0
    0.2435    2.9604    0.7973 H   0  0
    2.5919    6.5714   -0.6957 H   0  0
    3.4059    5.2381   -1.6094 H   0  0
    3.6532    5.3546    0.1302 H   0  0
   -3.7456    2.6160    0.1553 H   0  0
   -2.0795    3.2202    0.0708 H   0  0
   -2.4324    1.8710    1.1705 H   0  0
   -2.6249   -4.3625    0.0207 H   0  0
   -3.5971   -3.4623   -1.2107 H   0  0
   -3.6276   -3.0134    0.5471 H   0  0
    4.8605    1.3593    2.1795 H   0  0
    6.7516   -2.9584    0.7887 H   0  0
    7.2639    1.2061    1.4431 H   0  0
    3.5322   -3.0802    2.2431 H   0  0
    4.0012   -6.3129    0.7448 H   0  0
    1.8803   -6.4826   -0.3227 H   0  0
    4.1587   -7.4417   -1.3042 H   0  0
    5.4635   -7.4158   -3.3075 H   0  0
    5.3139   -5.4531   -4.8860 H   0  0
    3.8647   -3.6197   -4.3811 H   0  0
    2.4885   -3.6409   -2.2733 H   0  0
   10.8368   -2.9451   -0.5012 H   0  0
   11.0107   -1.5971    0.6724 H   0  0
   10.4891   -1.2592   -1.0127 H   0  0
    0.3645   -4.8162    4.6925 H   0  0
    0.8640   -6.9943    5.4636 H   0  0
    2.4450   -8.4406    4.2005 H   0  0
    3.4687   -7.6473    2.2211 H   0  0
    0.8135   -4.5202    0.2980 H   0  0
  1  2  1  0
  2  3  1  0
  3  4  1  0
  4  5  1  0
  5  6  1  0
  1  6  1  0
  2  7  1  0
  1  8  1  0
  6  9  1  0
  3 10  1  0
  9 11  1  0
 11 12  2  0
 10 13  1  0
 14 15  1  0
 13 14  1  0
 14 16  2  0
 17 18  1  0
  7 17  1  0
 19 20  1  0
  8 19  1  0
 19 21  2  0
 17 22  2  0
  5 23  1  0
 23 24  1  0
 26 27  2  0
 27 28  1  0
 28 29  2  0
 25 29  1  0
 25 24  2  0
 24 26  1  0
 28 30  1  0
 26 31  1  0
 32 33  1  0
 33 34  1  0
 34 35  1  0
 31 32  1  0
 36 37  2  0
 37 38  1  0
 38 39  2  0
 39 40  1  0
 35 36  1  0
 35 40  2  0
 32 41  2  0
 30 42  2  0
 30 43  1  0
 43 44  1  0
 11 45  1  0
 46 47  2  0
 47 48  1  0
 48 49  2  0
 49 50  1  0
 45 46  1  0
 45 50  2  0
 33 50  1  0
 34 51  1  0
  1 52  1  0
  2 53  1  0
  3 54  1  0
  5 55  1  0
  6 56  1  0
  9 57  1  0
 10 58  1  0
 10 59  1  0
 15 60  1  0
 15 61  1  0
 15 62  1  0
 18 63  1  0
 18 64  1  0
 18 65  1  0
 20 66  1  0
 20 67  1  0
 20 68  1  0
 25 69  1  0
 27 70  1  0
 29 71  1  0
 31 72  1  0
 33 73  1  0
 34 74  1  0
 36 75  1  0
 37 76  1  0
 38 77  1  0
 39 78  1  0
 40 79  1  0
 44 80  1  0
 44 81  1  0
 44 82  1  0
 46 83  1  0
 47 84  1  0
 48 85  1  0
 49 86  1  0
 51 87  1  0
M  END
> <Name>
MCP2009_14SR

> <Clean Energy>
116.491

$$$$
MCP2009_14SS
  SciTegic12132405553D

 87 91  0  0  0  0            999 V2000
    0.1148   -1.3400    0.2514 C   0  0  1  0  0  0
   -0.3665    0.1481    0.1313 C   0  0  1  0  0  0
    0.9626    1.0150   -0.0852 C   0  0  2  0  0  0
    1.8554    0.8361    1.0262 O   0  0
    2.2708   -0.5218    1.1629 C   0  0  2  0  0  0
    1.0608   -1.4226    1.4357 C   0  0  2  0  0  0
   -1.3107    0.2499   -1.0012 O   0  0
   -0.9712   -2.2678    0.5168 O   0  0
    1.5434   -2.7388    1.5534 N   0  0
    0.7261    2.5206   -0.2021 C   0  0
    1.1751   -3.5035    2.5851 C   0  0
    0.3624   -3.0187    3.3796 O   0  0
    1.9743    3.1793   -0.3913 O   0  0
    1.7631    4.5489   -0.4929 C   0  0
    2.9275    5.4690   -0.6955 C   0  0
    0.6183    5.0101   -0.4156 O   0  0
   -2.3307    1.2820   -1.0546 C   0  0
   -2.6678    2.2335    0.0902 C   0  0
   -1.8072   -2.5252   -0.5788 C   0  0
   -2.9702   -3.4501   -0.4087 C   0  0
   -1.5697   -2.0458   -1.6928 O   0  0
   -3.0458    1.3253   -2.0612 O   0  0
    3.2048   -0.6124    2.2257 O   0  0
    4.5357   -0.7189    1.9069 C   0  0
    5.2875    0.3780    1.8798 C   0  0
    5.1155   -2.0264    1.5303 C   0  0
    6.3922   -2.0863    1.1389 C   0  0
    7.2084   -0.8736    1.1133 C   0  0
    6.6863    0.2963    1.4733 C   0  0
    8.6028   -0.9502    0.6981 C   0  0
    4.2679   -3.1631    1.6116 N   0  0
    4.4068   -4.2789    0.8731 C   0  0
    3.4123   -5.4859    0.9366 C   0  0  2  0  0  0
    2.3575   -5.3780   -0.2199 C   0  0  1  0  0  0
    3.0406   -5.2889   -1.5450 C   0  0
    3.7960   -6.4285   -2.0672 C   0  0
    4.4005   -6.3382   -3.2494 C   0  0
    4.3075   -5.0999   -4.0260 C   0  0
    3.6170   -4.0649   -3.5505 C   0  0
    2.9526   -4.1644   -2.2525 C   0  0
    5.3357   -4.3672    0.0630 O   0  0
    9.2978    0.0721    0.6778 O   0  0
    9.1461   -2.1759    0.3247 O   0  0
   10.5160   -2.0045   -0.0408 C   0  0
    1.7101   -4.9035    2.9217 C   0  0
    1.1189   -5.4197    4.1765 C   0  0
    1.4429   -6.6065    4.6705 C   0  0
    2.3906   -7.4325    3.9890 C   0  0
    2.9488   -7.0122    2.8631 C   0  0
    2.6278   -5.7000    2.2714 C   0  0
    1.5880   -6.5766   -0.1698 O   0  0
    0.6481   -1.6501   -0.6584 H   0  0
   -0.8708    0.4173    1.0654 H   0  0
    1.4559    0.6714   -1.0050 H   0  0
    2.7633   -0.8416    0.2335 H   0  0
    0.5425   -1.1174    2.3524 H   0  0
    2.1679   -3.0308    0.9159 H   0  0
    0.0715    2.7263   -1.0579 H   0  0
    0.2551    2.8879    0.7201 H   0  0
    2.6000    6.5186   -0.7120 H   0  0
    3.4264    5.2026   -1.6386 H   0  0
    3.6621    5.2953    0.1042 H   0  0
   -3.7241    2.5310    0.0314 H   0  0
   -2.0580    3.1388   -0.0268 H   0  0
   -2.4238    1.7844    1.0619 H   0  0
   -2.6023   -4.4155   -0.0316 H   0  0
   -3.5116   -3.5784   -1.3571 H   0  0
   -3.6329   -3.0448    0.3696 H   0  0
    4.8633    1.3163    2.1338 H   0  0
    6.8284   -3.0097    0.8678 H   0  0
    7.2840    1.1718    1.4535 H   0  0
    3.5477   -3.1010    2.2085 H   0  0
    3.9947   -6.3896    0.7154 H   0  0
    1.7223   -4.5075   -0.0801 H   0  0
    3.8621   -7.3245   -1.5035 H   0  0
    4.9490   -7.1626   -3.6288 H   0  0
    4.7896   -5.0276   -4.9678 H   0  0
    3.5495   -3.1688   -4.1133 H   0  0
    2.4023   -3.3399   -1.8702 H   0  0
   10.9408   -2.9750   -0.3348 H   0  0
   11.0761   -1.6033    0.8163 H   0  0
   10.5846   -1.3031   -0.8849 H   0  0
    0.4148   -4.8253    4.6987 H   0  0
    0.9984   -6.9438    5.5722 H   0  0
    2.6464   -8.3825    4.3844 H   0  0
    3.6479   -7.6393    2.3714 H   0  0
    0.9086   -6.5592   -0.8872 H   0  0
  1  2  1  0
  2  3  1  0
  3  4  1  0
  4  5  1  0
  5  6  1  0
  1  6  1  0
  2  7  1  0
  1  8  1  0
  6  9  1  0
  3 10  1  0
  9 11  1  0
 11 12  2  0
 10 13  1  0
 14 15  1  0
 13 14  1  0
 14 16  2  0
 17 18  1  0
  7 17  1  0
 19 20  1  0
  8 19  1  0
 19 21  2  0
 17 22  2  0
  5 23  1  0
 23 24  1  0
 26 27  2  0
 27 28  1  0
 28 29  2  0
 25 29  1  0
 25 24  2  0
 24 26  1  0
 28 30  1  0
 26 31  1  0
 32 33  1  0
 33 34  1  0
 34 35  1  0
 31 32  1  0
 36 37  2  0
 37 38  1  0
 38 39  2  0
 39 40  1  0
 35 36  1  0
 35 40  2  0
 32 41  2  0
 30 42  2  0
 30 43  1  0
 43 44  1  0
 11 45  1  0
 46 47  2  0
 47 48  1  0
 48 49  2  0
 49 50  1  0
 45 46  1  0
 45 50  2  0
 33 50  1  0
 34 51  1  0
  1 52  1  0
  2 53  1  0
  3 54  1  0
  5 55  1  0
  6 56  1  0
  9 57  1  0
 10 58  1  0
 10 59  1  0
 15 60  1  0
 15 61  1  0
 15 62  1  0
 18 63  1  0
 18 64  1  0
 18 65  1  0
 20 66  1  0
 20 67  1  0
 20 68  1  0
 25 69  1  0
 27 70  1  0
 29 71  1  0
 31 72  1  0
 33 73  1  0
 34 74  1  0
 36 75  1  0
 37 76  1  0
 38 77  1  0
 39 78  1  0
 40 79  1  0
 44 80  1  0
 44 81  1  0
 44 82  1  0
 46 83  1  0
 47 84  1  0
 48 85  1  0
 49 86  1  0
 51 87  1  0
M  END
> <Name>
MCP2009_14SS

> <Clean Energy>
112.136

$$$$
MCP2009_14RS
  SciTegic12132405553D

 87 91  0  0  0  0            999 V2000
    0.0701   -1.6092    0.2690 C   0  0  1  0  0  0
   -0.4276   -0.1369    0.0524 C   0  0  1  0  0  0
    0.8859    0.7262   -0.2632 C   0  0  2  0  0  0
    1.8112    0.6443    0.8326 O   0  0
    2.2600   -0.6907    1.0590 C   0  0  2  0  0  0
    1.0425   -1.6041    1.4339 C   0  0  2  0  0  0
   -1.3999   -0.1278   -1.0608 O   0  0
   -1.0006   -2.5249    0.6271 O   0  0
    1.5369   -2.9243    1.6210 N   0  0
    0.6252    2.2159   -0.4855 C   0  0
    1.5342   -3.4944    2.8383 C   0  0
    1.0002   -2.8544    3.7504 O   0  0
    1.8585    2.8736   -0.7577 O   0  0
    1.6255    4.2291   -0.9559 C   0  0
    2.7711    5.1452   -1.2587 C   0  0
    0.4767    4.6809   -0.8822 O   0  0
   -2.4341    0.8862   -1.1638 C   0  0
   -2.7562    1.9146   -0.0831 C   0  0
   -1.8621   -2.8672   -0.4263 C   0  0
   -3.0105   -3.7887   -0.1618 C   0  0
   -1.6578   -2.4665   -1.5774 O   0  0
   -3.1734    0.8481   -2.1531 O   0  0
    3.2262   -0.6604    2.1191 O   0  0
    4.6181   -0.7481    1.8959 C   0  0
    5.3623    0.3453    2.0358 C   0  0
    5.2769   -2.0398    1.5362 C   0  0
    6.5972   -2.0852    1.3489 C   0  0
    7.3929   -0.8683    1.4971 C   0  0
    6.8094    0.2838    1.8235 C   0  0
    8.8339   -0.9187    1.2881 C   0  0
    4.4395   -3.1380    1.4244 N   0  0
    4.7367   -4.4061    1.1546 C   0  0
    3.5539   -5.3629    1.0621 C   0  0  1  0  0  0
    3.9875   -6.6206    0.2564 C   0  0  1  0  0  0
    2.8157   -7.5506    0.0481 C   0  0
    1.5650   -7.0532   -0.5412 C   0  0
    0.5390   -7.8816   -0.7190 C   0  0
    0.6574   -9.2876   -0.3302 C   0  0
    1.7923   -9.7391    0.2002 C   0  0
    2.9208   -8.8309    0.3964 C   0  0
    5.8886   -4.8051    0.9538 O   0  0
    9.5121    0.1075    1.4131 O   0  0
    9.4408   -2.1239    0.9475 O   0  0
   10.8473   -1.9290    0.7946 C   0  0
    2.1787   -4.8433    3.2382 C   0  0
    1.8240   -5.2400    4.6153 C   0  0
    2.3010   -6.3426    5.1753 C   0  0
    3.1979   -7.1903    4.4503 C   0  0
    3.5561   -6.8823    3.2121 C   0  0
    3.0347   -5.6506    2.5253 C   0  0
    4.4057   -6.1442   -1.0203 O   0  0
    0.5837   -1.9788   -0.6288 H   0  0
   -0.9120    0.1959    0.9764 H   0  0
    1.3596    0.3210   -1.1680 H   0  0
    2.7396   -1.0684    0.1454 H   0  0
    0.5531   -1.2355    2.3436 H   0  0
    1.9101   -3.3560    0.8666 H   0  0
   -0.0545    2.3489   -1.3360 H   0  0
    0.1736    2.6456    0.4192 H   0  0
    2.4274    6.1854   -1.3531 H   0  0
    3.2548    4.8091   -2.1874 H   0  0
    3.5245    5.0477   -0.4635 H   0  0
   -3.8173    2.1955   -0.1375 H   0  0
   -2.1608    2.8155   -0.2802 H   0  0
   -2.4838    1.5400    0.9123 H   0  0
   -2.6207   -4.7277    0.2577 H   0  0
   -3.5819   -3.9777   -1.0821 H   0  0
   -3.6500   -3.3437    0.6141 H   0  0
    4.9048    1.2648    2.2997 H   0  0
    7.0755   -2.9908    1.0951 H   0  0
    7.3958    1.1606    1.9304 H   0  0
    3.5776   -2.9626    1.5481 H   0  0
    2.7704   -4.8406    0.5562 H   0  0
    4.8135   -7.1465    0.7535 H   0  0
    1.4771   -6.0348   -0.8256 H   0  0
   -0.3642   -7.5229   -1.1435 H   0  0
   -0.1606   -9.9474   -0.4718 H   0  0
    1.8774  -10.7581    0.4810 H   0  0
    3.8238   -9.1900    0.8205 H   0  0
   11.3222   -2.8834    0.5257 H   0  0
   11.2709   -1.5621    1.7407 H   0  0
   11.0303   -1.1913   -0.0001 H   0  0
    1.1666   -4.6260    5.1752 H   0  0
    2.0218   -6.5944    6.1669 H   0  0
    3.5831   -8.0656    4.9082 H   0  0
    4.2280   -7.5261    2.7159 H   0  0
    4.6826   -6.9100   -1.5804 H   0  0
  1  2  1  0
  2  3  1  0
  3  4  1  0
  4  5  1  0
  5  6  1  0
  1  6  1  0
  2  7  1  0
  1  8  1  0
  6  9  1  0
  3 10  1  0
  9 11  1  0
 11 12  2  0
 10 13  1  0
 14 15  1  0
 13 14  1  0
 14 16  2  0
 17 18  1  0
  7 17  1  0
 19 20  1  0
  8 19  1  0
 19 21  2  0
 17 22  2  0
  5 23  1  0
 23 24  1  0
 26 27  2  0
 27 28  1  0
 28 29  2  0
 25 29  1  0
 25 24  2  0
 24 26  1  0
 28 30  1  0
 26 31  1  0
 32 33  1  0
 33 34  1  0
 34 35  1  0
 31 32  1  0
 36 37  2  0
 37 38  1  0
 38 39  2  0
 39 40  1  0
 35 36  1  0
 35 40  2  0
 32 41  2  0
 30 42  2  0
 30 43  1  0
 43 44  1  0
 11 45  1  0
 46 47  2  0
 47 48  1  0
 48 49  2  0
 49 50  1  0
 45 46  1  0
 45 50  2  0
 33 50  1  0
 34 51  1  0
  1 52  1  0
  2 53  1  0
  3 54  1  0
  5 55  1  0
  6 56  1  0
  9 57  1  0
 10 58  1  0
 10 59  1  0
 15 60  1  0
 15 61  1  0
 15 62  1  0
 18 63  1  0
 18 64  1  0
 18 65  1  0
 20 66  1  0
 20 67  1  0
 20 68  1  0
 25 69  1  0
 27 70  1  0
 29 71  1  0
 31 72  1  0
 33 73  1  0
 34 74  1  0
 36 75  1  0
 37 76  1  0
 38 77  1  0
 39 78  1  0
 40 79  1  0
 44 80  1  0
 44 81  1  0
 44 82  1  0
 46 83  1  0
 47 84  1  0
 48 85  1  0
 49 86  1  0
 51 87  1  0
M  END
> <Name>
MCP2009_14RS

> <Clean Energy>
108.78

$$$$
MCP2009_15RR
  SciTegic12132405553D

 82 86  0  0  0  0            999 V2000
    0.2065   -1.3598    0.0717 C   0  0  1  0  0  0
   -0.1404    0.1491   -0.0930 C   0  0  1  0  0  0
    1.1677    0.9235   -0.3304 C   0  0  2  0  0  0
    2.0681    0.7514    0.7782 O   0  0
    2.4336   -0.6269    0.9549 C   0  0  2  0  0  0
    1.1422   -1.4722    1.2626 C   0  0  2  0  0  0
   -1.0021    0.3788   -1.2046 O   0  0
   -0.9507   -2.1904    0.3546 O   0  0
    1.5350   -2.8265    1.4070 N   0  0
    0.8414    2.4110   -0.4776 C   0  0
    1.4339   -3.4504    2.5925 C   0  0
    0.9017   -2.8174    3.5105 O   0  0
    2.0471    3.1366   -0.7056 O   0  0
    1.7588    4.4897   -0.8408 C   0  0
    2.8670    5.4660   -1.0901 C   0  0
    0.5918    4.8896   -0.7569 O   0  0
   -1.8184   -2.3853   -0.7299 C   0  0
   -3.0493   -3.2150   -0.5394 C   0  0
   -1.5592   -1.9337   -1.8499 O   0  0
    3.3714   -0.7074    2.0388 O   0  0
    4.7551   -0.8877    1.8373 C   0  0
    5.5721    0.1461    2.0176 C   0  0
    5.3243   -2.2114    1.4451 C   0  0
    6.6404   -2.3425    1.2659 C   0  0
    7.5180   -1.1900    1.4605 C   0  0
    7.0134   -0.0106    1.8185 C   0  0
    8.9545   -1.3361    1.2653 C   0  0
    4.4096   -3.2473    1.2954 N   0  0
    4.6159   -4.5074    0.9142 C   0  0
    3.3648   -5.3977    0.7793 C   0  0  1  0  0  0
    3.6812   -6.6623   -0.1186 C   0  0  2  0  0  0
    2.3964   -7.4358   -0.3533 C   0  0
    1.2162   -6.7570   -0.9126 C   0  0
    0.0901   -7.4358   -1.1151 C   0  0
    0.0241   -8.8584   -0.7847 C   0  0
    1.0910   -9.4763   -0.2824 C   0  0
    2.3313   -8.7343   -0.0576 C   0  0
    5.7352   -4.9369    0.6224 O   0  0
    9.7018   -0.3651    1.4304 O   0  0
    9.4792   -2.5707    0.8945 O   0  0
   10.8980   -2.4721    0.7649 C   0  0
    1.9666   -4.8573    2.9519 C   0  0
    1.5363   -5.2769    4.3008 C   0  0
    1.9036   -6.4348    4.8289 C   0  0
    2.7488   -7.3229    4.0962 C   0  0
    3.1715   -6.9973    2.8832 C   0  0
    2.7815   -5.7011    2.2300 C   0  0
    4.6903   -7.5357    0.4208 O   0  0
    0.7176   -1.7331   -0.8261 H   0  0
   -0.6233    0.5134    0.8242 H   0  0
    1.6471    0.5592   -1.2496 H   0  0
    2.9108   -0.9968    0.0367 H   0  0
    0.6552   -1.1035    2.1735 H   0  0
   -0.5552    0.0730   -2.0328 H   0  0
    1.9169   -3.2453    0.6520 H   0  0
    0.1597    2.5545   -1.3273 H   0  0
    0.3625    2.7720    0.4431 H   0  0
    2.4797    6.4937   -1.1448 H   0  0
    3.3756    5.1906   -2.0254 H   0  0
    3.6146    5.3673   -0.2897 H   0  0
   -3.0579   -4.0199   -1.2885 H   0  0
   -3.9296   -2.5888   -0.7445 H   0  0
   -3.0933   -3.6205    0.4819 H   0  0
    5.1766    1.0880    2.3020 H   0  0
    7.0579   -3.2710    0.9900 H   0  0
    7.6586    0.8188    1.9593 H   0  0
    3.5676   -3.0267    1.4709 H   0  0
    2.6291   -4.7926    0.2979 H   0  0
    4.0208   -6.2614   -1.0828 H   0  0
    1.2601   -5.7249   -1.1555 H   0  0
   -0.7595   -6.9446   -1.5172 H   0  0
   -0.8740   -9.3988   -0.9463 H   0  0
    1.0414  -10.5082   -0.0440 H   0  0
    3.1752   -9.2317    0.3446 H   0  0
   11.3078   -3.4493    0.4719 H   0  0
   11.3330   -2.1654    1.7272 H   0  0
   11.1444   -1.7255   -0.0040 H   0  0
    0.9125   -4.6336    4.8660 H   0  0
    1.5726   -6.7012    5.8005 H   0  0
    3.0440   -8.2456    4.5268 H   0  0
    3.7961   -7.6737    2.3854 H   0  0
    5.5365   -7.0585    0.5428 H   0  0
  1  2  1  0
  2  3  1  0
  3  4  1  0
  4  5  1  0
  5  6  1  0
  1  6  1  0
  2  7  1  0
  1  8  1  0
  6  9  1  0
  3 10  1  0
  9 11  1  0
 11 12  2  0
 10 13  1  0
 14 15  1  0
 13 14  1  0
 14 16  2  0
 17 18  1  0
  8 17  1  0
 17 19  2  0
  5 20  1  0
 20 21  1  0
 23 24  2  0
 24 25  1  0
 25 26  2  0
 22 26  1  0
 22 21  2  0
 21 23  1  0
 25 27  1  0
 23 28  1  0
 29 30  1  0
 30 31  1  0
 31 32  1  0
 28 29  1  0
 33 34  2  0
 34 35  1  0
 35 36  2  0
 36 37  1  0
 32 33  1  0
 32 37  2  0
 29 38  2  0
 27 39  2  0
 27 40  1  0
 40 41  1  0
 11 42  1  0
 43 44  2  0
 44 45  1  0
 45 46  2  0
 46 47  1  0
 42 43  1  0
 42 47  2  0
 30 47  1  0
 31 48  1  0
  1 49  1  0
  2 50  1  0
  3 51  1  0
  5 52  1  0
  6 53  1  0
  7 54  1  0
  9 55  1  0
 10 56  1  0
 10 57  1  0
 15 58  1  0
 15 59  1  0
 15 60  1  0
 18 61  1  0
 18 62  1  0
 18 63  1  0
 22 64  1  0
 24 65  1  0
 26 66  1  0
 28 67  1  0
 30 68  1  0
 31 69  1  0
 33 70  1  0
 34 71  1  0
 35 72  1  0
 36 73  1  0
 37 74  1  0
 41 75  1  0
 41 76  1  0
 41 77  1  0
 43 78  1  0
 44 79  1  0
 45 80  1  0
 46 81  1  0
 48 82  1  0
M  END
> <Name>
MCP2009_15RR

> <Clean Energy>
85.383

$$$$
MCP2009_15SR
  SciTegic12132405553D

 82 86  0  0  0  0            999 V2000
    0.2662   -1.1014    0.2931 C   0  0  1  0  0  0
   -0.1083    0.4056    0.1859 C   0  0  1  0  0  0
    1.1862    1.2062   -0.0197 C   0  0  2  0  0  0
    2.0845    0.9988    1.0835 O   0  0
    2.4577   -0.3836    1.2037 C   0  0  2  0  0  0
    1.2102   -1.2398    1.4761 C   0  0  2  0  0  0
   -0.9755    0.6631   -0.9153 O   0  0
   -0.8751   -1.9608    0.5474 O   0  0
    1.6158   -2.5878    1.5782 N   0  0
    0.8429    2.6942   -0.1088 C   0  0
    1.2242   -3.3262    2.6128 C   0  0
    0.4724   -2.7941    3.4364 O   0  0
    2.0413    3.4411   -0.3050 O   0  0
    1.7395    4.7953   -0.3872 C   0  0
    2.8386    5.7916   -0.5945 C   0  0
    0.5683    5.1799   -0.2905 O   0  0
   -1.7387   -2.1320   -0.5427 C   0  0
   -2.9551   -2.9879   -0.3813 C   0  0
   -1.4872   -1.6372   -1.6461 O   0  0
    3.3872   -0.5174    2.2601 O   0  0
    4.6995   -0.6897    1.9281 C   0  0
    5.5079    0.3664    1.9074 C   0  0
    5.2000   -2.0181    1.5247 C   0  0
    6.4669   -2.1384    1.1136 C   0  0
    7.3469   -0.9716    1.0940 C   0  0
    6.8939    0.2181    1.4800 C   0  0
    8.7296   -1.1168    0.6586 C   0  0
    4.3003   -3.1216    1.6087 N   0  0
    4.3633   -4.2096    0.8212 C   0  0
    3.3571   -5.4151    0.8985 C   0  0  2  0  0  0
    2.4036   -5.4587   -0.3892 C   0  0  2  0  0  0
    3.2457   -5.4860   -1.6382 C   0  0
    4.0897   -6.6495   -1.9272 C   0  0
    4.8333   -6.6761   -3.0305 C   0  0
    4.8077   -5.5447   -3.9572 C   0  0
    4.0395   -4.4886   -3.6982 C   0  0
    3.2209   -4.4569   -2.4869 C   0  0
    5.2529   -4.2833   -0.0330 O   0  0
    9.4789   -0.1335    0.6445 O   0  0
    9.2011   -2.3643    0.2606 O   0  0
   10.5739   -2.2621   -0.1193 C   0  0
    1.6444   -4.7622    2.8948 C   0  0
    0.9967   -5.2805    4.1210 C   0  0
    1.2139   -6.5095    4.5656 C   0  0
    2.0963   -7.3802    3.8575 C   0  0
    2.7024   -6.9601    2.7567 C   0  0
    2.5030   -5.6001    2.2157 C   0  0
    1.4803   -4.3793   -0.4851 O   0  0
    0.7816   -1.4339   -0.6188 H   0  0
   -0.5955    0.7267    1.1169 H   0  0
    1.6716    0.8841   -0.9515 H   0  0
    2.9330   -0.7125    0.2686 H   0  0
    0.7119   -0.9142    2.3967 H   0  0
   -0.5248    0.3965   -1.7550 H   0  0
    2.1911   -2.9345    0.9114 H   0  0
    0.1612    2.8634   -0.9539 H   0  0
    0.3582    3.0131    0.8243 H   0  0
    2.4407    6.8166   -0.6132 H   0  0
    3.3550    5.5561   -1.5363 H   0  0
    3.5828    5.6714    0.2060 H   0  0
   -2.9269   -3.7914   -1.1313 H   0  0
   -3.8448   -2.3825   -0.6071 H   0  0
   -3.0115   -3.3993    0.6371 H   0  0
    5.1370    1.3217    2.1806 H   0  0
    6.8503   -3.0803    0.8255 H   0  0
    7.5371    1.0608    1.4655 H   0  0
    3.6121   -3.0572    2.2484 H   0  0
    3.9663   -6.3188    0.7775 H   0  0
    1.8565   -6.4083   -0.3200 H   0  0
    4.1082   -7.4701   -1.2556 H   0  0
    5.4439   -7.5177   -3.2379 H   0  0
    5.4008   -5.5659   -4.8361 H   0  0
    4.0214   -3.6691   -4.3710 H   0  0
    2.6127   -3.6127   -2.2851 H   0  0
   10.9418   -3.2496   -0.4327 H   0  0
   11.1649   -1.9051    0.7366 H   0  0
   10.6709   -1.5525   -0.9538 H   0  0
    0.3375   -4.6524    4.6621 H   0  0
    0.7315   -6.8468    5.4476 H   0  0
    2.2672   -8.3644    4.2130 H   0  0
    3.3533   -7.6235    2.2467 H   0  0
    0.8654   -4.3967    0.2719 H   0  0
  1  2  1  0
  2  3  1  0
  3  4  1  0
  4  5  1  0
  5  6  1  0
  1  6  1  0
  2  7  1  0
  1  8  1  0
  6  9  1  0
  3 10  1  0
  9 11  1  0
 11 12  2  0
 10 13  1  0
 14 15  1  0
 13 14  1  0
 14 16  2  0
 17 18  1  0
  8 17  1  0
 17 19  2  0
  5 20  1  0
 20 21  1  0
 23 24  2  0
 24 25  1  0
 25 26  2  0
 22 26  1  0
 22 21  2  0
 21 23  1  0
 25 27  1  0
 23 28  1  0
 29 30  1  0
 30 31  1  0
 31 32  1  0
 28 29  1  0
 33 34  2  0
 34 35  1  0
 35 36  2  0
 36 37  1  0
 32 33  1  0
 32 37  2  0
 29 38  2  0
 27 39  2  0
 27 40  1  0
 40 41  1  0
 11 42  1  0
 43 44  2  0
 44 45  1  0
 45 46  2  0
 46 47  1  0
 42 43  1  0
 42 47  2  0
 30 47  1  0
 31 48  1  0
  1 49  1  0
  2 50  1  0
  3 51  1  0
  5 52  1  0
  6 53  1  0
  7 54  1  0
  9 55  1  0
 10 56  1  0
 10 57  1  0
 15 58  1  0
 15 59  1  0
 15 60  1  0
 18 61  1  0
 18 62  1  0
 18 63  1  0
 22 64  1  0
 24 65  1  0
 26 66  1  0
 28 67  1  0
 30 68  1  0
 31 69  1  0
 33 70  1  0
 34 71  1  0
 35 72  1  0
 36 73  1  0
 37 74  1  0
 41 75  1  0
 41 76  1  0
 41 77  1  0
 43 78  1  0
 44 79  1  0
 45 80  1  0
 46 81  1  0
 48 82  1  0
M  END
> <Name>
MCP2009_15SR

> <Clean Energy>
90.9948

$$$$
MCP2009_15SS
  SciTegic12132405553D

 82 86  0  0  0  0            999 V2000
    0.3026   -1.1946    0.2032 C   0  0  1  0  0  0
   -0.0770    0.3098    0.0714 C   0  0  1  0  0  0
    1.2178    1.1162   -0.1185 C   0  0  2  0  0  0
    2.0978    0.9273    1.0029 O   0  0
    2.4763   -0.4511    1.1469 C   0  0  2  0  0  0
    1.2229   -1.3112    1.4074 C   0  0  2  0  0  0
   -0.9236    0.5509   -1.0495 O   0  0
   -0.8399   -2.0569    0.4433 O   0  0
    1.6475   -2.6437    1.5388 N   0  0
    0.8670    2.6011   -0.2292 C   0  0
    1.2352   -3.3880    2.5682 C   0  0
    0.4332   -2.8676    3.3510 O   0  0
    2.0640    3.3542   -0.4098 O   0  0
    1.7549    4.7057   -0.5084 C   0  0
    2.8510    5.7080   -0.7023 C   0  0
    0.5796    5.0831   -0.4360 O   0  0
   -1.6795   -2.2435   -0.6635 C   0  0
   -2.8966   -3.1018   -0.5190 C   0  0
   -1.4061   -1.7597   -1.7665 O   0  0
    3.3922   -0.5696    2.2237 O   0  0
    4.7223   -0.7402    1.9256 C   0  0
    5.5246    0.3206    1.9092 C   0  0
    5.2481   -2.0749    1.5599 C   0  0
    6.5269   -2.1933    1.1889 C   0  0
    7.3978   -1.0194    1.1746 C   0  0
    6.9244    0.1738    1.5249 C   0  0
    8.7937   -1.1607    0.7819 C   0  0
    4.3509   -3.1742    1.6311 N   0  0
    4.4516   -4.2967    0.8955 C   0  0
    3.4074   -5.4623    0.9487 C   0  0  2  0  0  0
    2.3689   -5.3141   -0.2186 C   0  0  1  0  0  0
    3.0667   -5.2518   -1.5371 C   0  0
    3.7807   -6.4198   -2.0541 C   0  0
    4.3982   -6.3523   -3.2311 C   0  0
    4.3608   -5.1105   -4.0070 C   0  0
    3.7079   -4.0494   -3.5359 C   0  0
    3.0294   -4.1239   -2.2437 C   0  0
    5.3859   -4.4254    0.0970 O   0  0
    9.5352   -0.1713    0.7716 O   0  0
    9.2862   -2.4108    0.4193 O   0  0
   10.6683   -2.3032    0.0761 C   0  0
    1.7099   -4.8074    2.9148 C   0  0
    1.0856   -5.2957    4.1647 C   0  0
    1.3570   -6.4930    4.6651 C   0  0
    2.2781   -7.3583    3.9955 C   0  0
    2.8641   -6.9640    2.8744 C   0  0
    2.6016   -5.6419    2.2761 C   0  0
    1.5522   -6.4813   -0.1754 O   0  0
    0.8388   -1.5345   -0.6944 H   0  0
   -0.5842    0.6383    0.9890 H   0  0
    1.7224    0.7871   -1.0376 H   0  0
    2.9701   -0.7903    0.2250 H   0  0
    0.7036   -0.9782    2.3140 H   0  0
   -0.4550    0.2778   -1.8772 H   0  0
    2.2667   -2.9636    0.9117 H   0  0
    0.2000    2.7578   -1.0883 H   0  0
    0.3632    2.9258    0.6917 H   0  0
    2.4474    6.7306   -0.7293 H   0  0
    3.3815    5.4736   -1.6366 H   0  0
    3.5850    5.5937    0.1085 H   0  0
   -2.8734   -3.8880   -1.2874 H   0  0
   -3.7850   -2.4884   -0.7276 H   0  0
   -2.9534   -3.5329    0.4911 H   0  0
    5.1403    1.2779    2.1554 H   0  0
    6.9251   -3.1363    0.9268 H   0  0
    7.5619    1.0209    1.5136 H   0  0
    3.6268   -3.0804    2.2191 H   0  0
    3.9553   -6.3890    0.7343 H   0  0
    1.7672   -4.4193   -0.0855 H   0  0
    3.8064   -7.3182   -1.4910 H   0  0
    4.9167   -7.1974   -3.6070 H   0  0
    4.8532   -5.0564   -4.9447 H   0  0
    3.6806   -3.1508   -4.0980 H   0  0
    2.5087   -3.2786   -1.8650 H   0  0
   11.0528   -3.2928   -0.2096 H   0  0
   11.2322   -1.9264    0.9417 H   0  0
   10.7829   -1.6075   -0.7678 H   0  0
    0.4005   -4.6720    4.6780 H   0  0
    0.8903   -6.8095    5.5630 H   0  0
    2.4918   -8.3165    4.3961 H   0  0
    3.5426   -7.6199    2.3915 H   0  0
    0.8809   -6.4375   -0.8992 H   0  0
  1  2  1  0
  2  3  1  0
  3  4  1  0
  4  5  1  0
  5  6  1  0
  1  6  1  0
  2  7  1  0
  1  8  1  0
  6  9  1  0
  3 10  1  0
  9 11  1  0
 11 12  2  0
 10 13  1  0
 14 15  1  0
 13 14  1  0
 14 16  2  0
 17 18  1  0
  8 17  1  0
 17 19  2  0
  5 20  1  0
 20 21  1  0
 23 24  2  0
 24 25  1  0
 25 26  2  0
 22 26  1  0
 22 21  2  0
 21 23  1  0
 25 27  1  0
 23 28  1  0
 29 30  1  0
 30 31  1  0
 31 32  1  0
 28 29  1  0
 33 34  2  0
 34 35  1  0
 35 36  2  0
 36 37  1  0
 32 33  1  0
 32 37  2  0
 29 38  2  0
 27 39  2  0
 27 40  1  0
 40 41  1  0
 11 42  1  0
 43 44  2  0
 44 45  1  0
 45 46  2  0
 46 47  1  0
 42 43  1  0
 42 47  2  0
 30 47  1  0
 31 48  1  0
  1 49  1  0
  2 50  1  0
  3 51  1  0
  5 52  1  0
  6 53  1  0
  7 54  1  0
  9 55  1  0
 10 56  1  0
 10 57  1  0
 15 58  1  0
 15 59  1  0
 15 60  1  0
 18 61  1  0
 18 62  1  0
 18 63  1  0
 22 64  1  0
 24 65  1  0
 26 66  1  0
 28 67  1  0
 30 68  1  0
 31 69  1  0
 33 70  1  0
 34 71  1  0
 35 72  1  0
 36 73  1  0
 37 74  1  0
 41 75  1  0
 41 76  1  0
 41 77  1  0
 43 78  1  0
 44 79  1  0
 45 80  1  0
 46 81  1  0
 48 82  1  0
M  END
> <Name>
MCP2009_15SS

> <Clean Energy>
86.67

$$$$
MCP2009_15RS
  SciTegic12132405553D

 82 86  0  0  0  0            999 V2000
    0.2309   -1.4943    0.1972 C   0  0  1  0  0  0
   -0.1693   -0.0067   -0.0345 C   0  0  1  0  0  0
    1.1079    0.8001   -0.3246 C   0  0  2  0  0  0
    2.0252    0.7123    0.7783 O   0  0
    2.4419   -0.6416    1.0156 C   0  0  2  0  0  0
    1.1833   -1.5181    1.3815 C   0  0  2  0  0  0
   -1.0504    0.1410   -1.1449 O   0  0
   -0.8952   -2.3478    0.5327 O   0  0
    1.6240   -2.8543    1.5876 N   0  0
    0.7286    2.2672   -0.5360 C   0  0
    1.5880   -3.4106    2.8101 C   0  0
    1.0706   -2.7411    3.7105 O   0  0
    1.9063    3.0220   -0.8111 O   0  0
    1.5709    4.3574   -1.0023 C   0  0
    2.6430    5.3582   -1.3067 C   0  0
    0.3920    4.7215   -0.9215 O   0  0
   -1.7671   -2.6216   -0.5317 C   0  0
   -2.9692   -3.4792   -0.2884 C   0  0
   -1.5337   -2.2156   -1.6746 O   0  0
    3.3932   -0.6327    2.0897 O   0  0
    4.7843   -0.7802    1.8933 C   0  0
    5.5694    0.2830    2.0426 C   0  0
    5.3981   -2.1005    1.5550 C   0  0
    6.7193   -2.1993    1.3961 C   0  0
    7.5599   -1.0144    1.5536 C   0  0
    7.0167    0.1622    1.8607 C   0  0
    9.0018   -1.1240    1.3755 C   0  0
    4.5212   -3.1677    1.4326 N   0  0
    4.7778   -4.4501    1.1879 C   0  0
    3.5639   -5.3641    1.0783 C   0  0  1  0  0  0
    3.9682   -6.6416    0.2885 C   0  0  1  0  0  0
    2.7690   -7.5318    0.0632 C   0  0
    1.5488   -6.9957   -0.5547 C   0  0
    0.4982   -7.7892   -0.7479 C   0  0
    0.5595   -9.1954   -0.3471 C   0  0
    1.6670   -9.6822    0.2093 C   0  0
    2.8223   -8.8123    0.4222 C   0  0
    5.9188   -4.8949    1.0254 O   0  0
    9.7179   -0.1249    1.5086 O   0  0
    9.5668   -2.3550    1.0556 O   0  0
   10.9829   -2.2178    0.9319 C   0  0
    2.1744   -4.7796    3.2289 C   0  0
    1.7838   -5.1528    4.6027 C   0  0
    2.2098   -6.2689    5.1771 C   0  0
    3.0848   -7.1551    4.4715 C   0  0
    3.4735   -6.8694    3.2371 C   0  0
    3.0100   -5.6234    2.5345 C   0  0
    4.4265   -6.1883   -0.9828 O   0  0
    0.7448   -1.8928   -0.6880 H   0  0
   -0.6546    0.3840    0.8705 H   0  0
    1.5897    0.4098   -1.2318 H   0  0
    2.9222   -1.0384    0.1103 H   0  0
    0.6948   -1.1219    2.2801 H   0  0
   -0.6020   -0.1880   -1.9635 H   0  0
    1.9863   -3.3087    0.8414 H   0  0
    0.0331    2.3482   -1.3829 H   0  0
    0.2475    2.6536    0.3732 H   0  0
    2.2186    6.3667   -1.4167 H   0  0
    3.1634    5.0501   -2.2252 H   0  0
    3.3919    5.3316   -0.5020 H   0  0
   -2.9446   -4.3326   -0.9815 H   0  0
   -3.8704   -2.9009   -0.5386 H   0  0
   -3.0030   -3.8182    0.7571 H   0  0
    5.1442    1.2218    2.2921 H   0  0
    7.1666   -3.1249    1.1582 H   0  0
    7.6355    1.0155    1.9748 H   0  0
    3.6628   -2.9583    1.5301 H   0  0
    2.8092   -4.8179    0.5549 H   0  0
    4.7659   -7.1926    0.8042 H   0  0
    1.5022   -5.9769   -0.8478 H   0  0
   -0.3832   -7.4025   -1.1931 H   0  0
   -0.2781   -9.8274   -0.5009 H   0  0
    1.7108  -10.7013    0.4988 H   0  0
    3.7036   -9.1995    0.8669 H   0  0
   11.4246   -3.1923    0.6792 H   0  0
   11.4008   -1.8615    1.8846 H   0  0
   11.2124   -1.4937    0.1367 H   0  0
    1.1418   -4.5104    5.1484 H   0  0
    1.9062   -6.5029    6.1658 H   0  0
    3.4293   -8.0411    4.9408 H   0  0
    4.1280   -7.5416    2.7558 H   0  0
    4.6871   -6.9668   -1.5332 H   0  0
  1  2  1  0
  2  3  1  0
  3  4  1  0
  4  5  1  0
  5  6  1  0
  1  6  1  0
  2  7  1  0
  1  8  1  0
  6  9  1  0
  3 10  1  0
  9 11  1  0
 11 12  2  0
 10 13  1  0
 14 15  1  0
 13 14  1  0
 14 16  2  0
 17 18  1  0
  8 17  1  0
 17 19  2  0
  5 20  1  0
 20 21  1  0
 23 24  2  0
 24 25  1  0
 25 26  2  0
 22 26  1  0
 22 21  2  0
 21 23  1  0
 25 27  1  0
 23 28  1  0
 29 30  1  0
 30 31  1  0
 31 32  1  0
 28 29  1  0
 33 34  2  0
 34 35  1  0
 35 36  2  0
 36 37  1  0
 32 33  1  0
 32 37  2  0
 29 38  2  0
 27 39  2  0
 27 40  1  0
 40 41  1  0
 11 42  1  0
 43 44  2  0
 44 45  1  0
 45 46  2  0
 46 47  1  0
 42 43  1  0
 42 47  2  0
 30 47  1  0
 31 48  1  0
  1 49  1  0
  2 50  1  0
  3 51  1  0
  5 52  1  0
  6 53  1  0
  7 54  1  0
  9 55  1  0
 10 56  1  0
 10 57  1  0
 15 58  1  0
 15 59  1  0
 15 60  1  0
 18 61  1  0
 18 62  1  0
 18 63  1  0
 22 64  1  0
 24 65  1  0
 26 66  1  0
 28 67  1  0
 30 68  1  0
 31 69  1  0
 33 70  1  0
 34 71  1  0
 35 72  1  0
 36 73  1  0
 37 74  1  0
 41 75  1  0
 41 76  1  0
 41 77  1  0
 43 78  1  0
 44 79  1  0
 45 80  1  0
 46 81  1  0
 48 82  1  0
M  END
> <Name>
MCP2009_15RS

> <Clean Energy>
83.2044

$$$$
MCP2009_16
  SciTegic12132405553D

 96100  0  0  0  0            999 V2000
    0.0333   -1.0834    1.1763 C   0  0  1  0  0  0
   -0.4891    0.2497    0.5394 C   0  0  1  0  0  0
    0.5700    0.6509   -0.5755 C   0  0  2  0  0  0
    1.8533    0.8440    0.0261 O   0  0
    2.3934   -0.3445    0.6096 C   0  0  2  0  0  0
    1.4407   -0.8331    1.7672 C   0  0  2  0  0  0
   -1.8403    0.0082   -0.0102 O   0  0
   -0.8104   -1.5328    2.2769 O   0  0
    2.0193   -2.0233    2.4656 N   0  0
    0.2476    1.9529   -1.3096 C   0  0
    1.6796   -3.3272    2.2442 C   0  0
    2.3201   -4.4260    2.9949 C   0  0
    0.8543   -3.6657    1.3903 O   0  0
    1.9450   -5.7912    2.6420 C   0  0
    2.5043   -6.8389    3.2534 C   0  0
    3.5070   -6.5826    4.3126 C   0  0
    3.8420   -5.3350    4.6336 C   0  0
    3.2277   -4.2090    3.9452 C   0  0
    1.2618    2.2144   -2.2742 O   0  0
    0.9714    3.3995   -2.9393 C   0  0
    1.8930    3.8983   -4.0096 C   0  0
   -0.0441    4.0432   -2.6503 O   0  0
   -2.8169    1.0759   -0.1398 C   0  0
   -2.6489    2.4831    0.4263 C   0  0
   -2.0478   -2.0770    1.8967 C   0  0
   -2.9952   -2.5471    2.9541 C   0  0
   -2.3433   -2.2279    0.7062 O   0  0
   -3.9039    0.7948   -0.6554 O   0  0
    3.6910    0.0329    1.1245 O   0  0
    4.7840   -0.8688    1.4635 C   0  0
    5.7645   -0.2424    2.1128 C   0  0
    4.9555   -2.3889    1.1584 C   0  0
    6.0790   -2.9734    1.6112 C   0  0
    7.0898   -2.2290    2.3363 C   0  0
    6.9448   -0.9357    2.5668 C   0  0
    8.2858   -2.9159    2.8064 C   0  0
    3.9725   -3.1739    0.3869 N   0  0
    4.0825   -4.4853    0.0683 C   0  0
    2.9893   -5.1085   -0.6608 C   0  0
    3.0431   -6.4147   -0.9240 C   0  0
    1.9532   -7.1234   -1.6195 C   0  0
    0.7290   -6.4320   -2.0653 C   0  0
   -0.2345   -7.1161   -2.6780 C   0  0
   -0.0811   -8.5516   -2.9102 C   0  0
    1.0231   -9.1768   -2.5090 C   0  0
    2.0837   -8.4304   -1.8350 C   0  0
    5.0396   -5.1926    0.3920 O   0  0
    9.1563   -2.2890    3.4210 O   0  0
    8.4427   -4.2769    2.5610 O   0  0
    9.6816   -4.7259    3.1113 C   0  0
    2.1240   -8.2534    2.8603 C   0  0
    1.1401   -8.5013    1.7747 C   0  0
    0.8157   -9.7438    1.4283 C   0  0
    1.4210  -10.8759    2.1122 C   0  0
    2.3026  -10.6704    3.0861 C   0  0
    2.6714   -9.3079    3.4769 C   0  0
    0.0976   -1.8683    0.4136 H   0  0
   -0.5345    1.0075    1.3284 H   0  0
    0.6278   -0.1568   -1.3183 H   0  0
    2.4953   -1.0879   -0.1754 H   0  0
    1.3779   -0.0233    2.5065 H   0  0
    2.6986   -1.8321    3.1525 H   0  0
   -0.7213    1.8610   -1.8155 H   0  0
    0.2097    2.7790   -0.5862 H   0  0
    1.2310   -5.9358    1.8814 H   0  0
    3.9665   -7.3874    4.8209 H   0  0
    4.5627   -5.1605    5.3914 H   0  0
    3.5099   -3.2223    4.1983 H   0  0
    1.5120    4.8297   -4.4528 H   0  0
    2.0074    3.1153   -4.7732 H   0  0
    2.8900    4.0533   -3.5723 H   0  0
   -3.6329    2.9140    0.6581 H   0  0
   -2.1821    3.1088   -0.3456 H   0  0
   -1.9882    2.4791    1.3032 H   0  0
   -2.5430   -3.4091    3.4659 H   0  0
   -3.9616   -2.8328    2.5144 H   0  0
   -3.1122   -1.7586    3.7115 H   0  0
    5.6653    0.7932    2.3170 H   0  0
    6.2591   -3.9829    1.4408 H   0  0
    7.6971   -0.4060    3.0937 H   0  0
    3.1807   -2.7439    0.0789 H   0  0
    2.1548   -4.5269   -0.9493 H   0  0
    3.8912   -6.9676   -0.6096 H   0  0
    0.6083   -5.3933   -1.9002 H   0  0
   -1.1150   -6.6193   -2.9977 H   0  0
   -0.8500   -9.0948   -3.3982 H   0  0
    1.1330  -10.2180   -2.6770 H   0  0
    2.9598   -8.9324   -1.5115 H   0  0
    9.8013   -5.8010    2.9152 H   0  0
    9.6859   -4.5482    4.1965 H   0  0
   10.5106   -4.1735    2.6456 H   0  0
    0.6908   -7.6923    1.2629 H   0  0
    0.1144   -9.9087    0.6493 H   0  0
    1.1593  -11.8652    1.8339 H   0  0
    2.7421  -11.4981    3.5823 H   0  0
    3.3748   -9.1721    4.2505 H   0  0
  1  2  1  0
  2  3  1  0
  3  4  1  0
  4  5  1  0
  5  6  1  0
  1  6  1  0
  2  7  1  0
  1  8  1  0
  6  9  1  0
  3 10  1  0
  9 11  1  0
 11 12  1  0
 11 13  2  0
 14 15  2  0
 15 16  1  0
 16 17  2  0
 17 18  1  0
 12 14  1  0
 12 18  2  0
 10 19  1  0
 20 21  1  0
 19 20  1  0
 20 22  2  0
 23 24  1  0
  7 23  1  0
 25 26  1  0
  8 25  1  0
 25 27  2  0
 23 28  2  0
  5 29  1  0
 29 30  1  0
 32 33  2  0
 33 34  1  0
 34 35  2  0
 31 35  1  0
 31 30  2  0
 30 32  1  0
 34 36  1  0
 32 37  1  0
 38 39  1  0
 39 40  2  0
 40 41  1  0
 37 38  1  0
 42 43  2  0
 43 44  1  0
 44 45  2  0
 45 46  1  0
 41 42  1  0
 41 46  2  0
 38 47  2  0
 36 48  2  0
 36 49  1  0
 49 50  1  0
 15 51  1  0
 52 53  2  0
 53 54  1  0
 54 55  2  0
 55 56  1  0
 51 52  1  0
 51 56  2  0
  1 57  1  0
  2 58  1  0
  3 59  1  0
  5 60  1  0
  6 61  1  0
  9 62  1  0
 10 63  1  0
 10 64  1  0
 14 65  1  0
 16 66  1  0
 17 67  1  0
 18 68  1  0
 21 69  1  0
 21 70  1  0
 21 71  1  0
 24 72  1  0
 24 73  1  0
 24 74  1  0
 26 75  1  0
 26 76  1  0
 26 77  1  0
 31 78  1  0
 33 79  1  0
 35 80  1  0
 37 81  1  0
 39 82  1  0
 40 83  1  0
 42 84  1  0
 43 85  1  0
 44 86  1  0
 45 87  1  0
 46 88  1  0
 50 89  1  0
 50 90  1  0
 50 91  1  0
 52 92  1  0
 53 93  1  0
 54 94  1  0
 55 95  1  0
 56 96  1  0
M  END
> <Name>
MCP2009_16

> <Clean Energy>
59.0469

$$$$
MCP2009_17
  SciTegic12132405553D

125128  0  0  0  0            999 V2000
    0.0157   -0.7401    0.6049 C   0  0  1  0  0  0
   -0.3440    0.6823    0.0625 C   0  0  1  0  0  0
    0.9310    1.1860   -0.7371 C   0  0  2  0  0  0
    2.0587    1.2447    0.1396 O   0  0
    2.4511   -0.0319    0.6571 C   0  0  2  0  0  0
    1.2687   -0.6305    1.5122 C   0  0  2  0  0  0
   -1.5483    0.5687   -0.7880 O   0  0
   -1.0573   -1.2974    1.4243 O   0  0
    1.6768   -1.9294    2.1529 N   0  0
    0.7809    2.5873   -1.3308 C   0  0
    1.2495   -3.1757    1.7874 C   0  0
    1.6870   -4.3815    2.5021 C   0  0
    0.4875   -3.3755    0.8370 O   0  0
    1.1572   -5.6476    2.0371 C   0  0
    1.5015   -6.7861    2.6231 C   0  0
    2.4317   -6.7690    3.7498 C   0  0
    2.9267   -5.6092    4.1829 C   0  0
    2.5359   -4.3546    3.5302 C   0  0
    1.9764    2.9436   -2.0163 O   0  0
    1.8367    4.2200   -2.5487 C   0  0
    2.9637    4.8330   -3.3213 C   0  0
    0.7859    4.8512   -2.3854 O   0  0
   -2.4686    1.6789   -0.9643 C   0  0
   -2.4164    2.9858   -0.1781 C   0  0
   -2.1799   -1.7500    0.7061 C   0  0
   -3.3373   -2.3372    1.4495 C   0  0
   -2.1974   -1.7357   -0.5295 O   0  0
   -3.4226    1.5124   -1.7315 O   0  0
    3.6217    0.2324    1.4627 O   0  0
    4.6109   -0.7389    1.9052 C   0  0
    5.4699   -0.2120    2.7769 C   0  0
    4.8006   -2.2297    1.4913 C   0  0
    5.8153   -2.8935    2.0746 C   0  0
    6.6969   -2.2557    3.0327 C   0  0
    6.5367   -0.9857    3.3610 C   0  0
    7.7798   -3.0243    3.6325 C   0  0
    3.9469   -2.9070    0.4956 N   0  0
    4.0747   -4.1942    0.0928 C   0  0
    3.1138   -4.7170   -0.8649 C   0  0
    3.1822   -6.0014   -1.2174 C   0  0
    2.2204   -6.6150   -2.1494 C   0  0
    1.1145   -5.8457   -2.7519 C   0  0
    0.2613   -6.4461   -3.5784 C   0  0
    0.4180   -7.8658   -3.8903 C   0  0
    1.4153   -8.5613   -3.3482 C   0  0
    2.3552   -7.9074   -2.4389 C   0  0
    4.9390   -4.9636    0.5193 O   0  0
    8.5397   -2.4880    4.4471 O   0  0
    7.9557   -4.3599    3.2832 O   0  0
    9.0729   -4.8996    3.9903 C   0  0
    0.6756   -8.6453    1.9050 Sn  0  0
   -0.5532   -9.5325    3.5065 C   0  0
   -1.5649  -10.5209    2.9092 C   0  0
   -2.4078  -11.1201    4.0356 C   0  0
   -3.4183  -12.1037    3.4325 C   0  0
    2.3288   -9.9970    1.3845 C   0  0
    1.7599  -11.3339    0.8933 C   0  0
    2.9123  -12.2727    0.5341 C   0  0
    2.3335  -13.6079    0.0481 C   0  0
   -0.5508   -8.2754    0.1031 C   0  0
   -1.7463   -7.3748    0.4398 C   0  0
   -2.5560   -7.1281   -0.8325 C   0  0
   -3.7447   -6.2187   -0.4986 C   0  0
    0.2373   -1.4224   -0.2263 H   0  0
   -0.5503    1.3288    0.9215 H   0  0
    1.1374    0.4841   -1.5568 H   0  0
    2.7081   -0.6756   -0.1840 H   0  0
    1.0592    0.0779    2.3250 H   0  0
    2.2896   -1.8606    2.9213 H   0  0
   -0.0602    2.6012   -2.0347 H   0  0
    0.5968    3.3068   -0.5211 H   0  0
    0.4887   -5.6611    1.2212 H   0  0
    2.7122   -7.6771    4.2206 H   0  0
    3.6028   -5.5932    4.9995 H   0  0
    2.9314   -3.4348    3.8733 H   0  0
    2.6933    5.8369   -3.6795 H   0  0
    3.2190    4.1710   -4.1612 H   0  0
    3.8534    4.8734   -2.6764 H   0  0
   -3.4231    3.4208   -0.1061 H   0  0
   -1.7832    3.6923   -0.7301 H   0  0
   -1.9665    2.8320    0.8116 H   0  0
   -3.3277   -3.4270    1.2947 H   0  0
   -4.2773   -1.9639    1.0186 H   0  0
   -3.2627   -2.1154    2.5238 H   0  0
    5.3575    0.8040    3.0582 H   0  0
    6.0018   -3.8892    1.8438 H   0  0
    7.1940   -0.5341    4.0597 H   0  0
    3.2325   -2.4184    0.0922 H   0  0
    2.3594   -4.0834   -1.2492 H   0  0
    3.9464   -6.6079   -0.8024 H   0  0
    0.9913   -4.8180   -2.5300 H   0  0
   -0.5346   -5.8941   -4.0096 H   0  0
   -0.2635   -8.3420   -4.5483 H   0  0
    1.5271   -9.5912   -3.5743 H   0  0
    3.1452   -8.4657   -2.0035 H   0  0
    9.2083   -5.9543    3.7112 H   0  0
    8.8912   -4.8267    5.0724 H   0  0
    9.9787   -4.3323    3.7311 H   0  0
   -1.0936   -8.7340    4.0336 H   0  0
    0.0986  -10.0628    4.2145 H   0  0
   -2.2211   -9.9932    2.2023 H   0  0
   -1.0291  -11.3238    2.3830 H   0  0
   -1.7530  -11.6487    4.7426 H   0  0
   -2.9431  -10.3159    4.5602 H   0  0
   -4.0300  -12.5398    4.2352 H   0  0
   -2.8786  -12.9031    2.9051 H   0  0
   -4.0675  -11.5698    2.7236 H   0  0
    2.9545  -10.1690    2.2713 H   0  0
    2.9363   -9.5430    0.5876 H   0  0
    1.1515  -11.7880    1.6890 H   0  0
    1.1338  -11.1631    0.0055 H   0  0
    3.5198  -11.8203   -0.2624 H   0  0
    3.5371  -12.4428    1.4225 H   0  0
    3.1544  -14.2911   -0.2124 H   0  0
    1.7055  -13.4324   -0.8370 H   0  0
    1.7238  -14.0532    0.8478 H   0  0
   -0.9155   -9.2334   -0.2931 H   0  0
    0.0660   -7.7803   -0.6541 H   0  0
   -2.3788   -7.8649    1.1939 H   0  0
   -1.3857   -6.4151    0.8314 H   0  0
   -1.9175   -6.6393   -1.5825 H   0  0
   -2.9202   -8.0867   -1.2280 H   0  0
   -4.3329   -6.0346   -1.4088 H   0  0
   -3.3716   -5.2624   -0.1016 H   0  0
   -4.3770   -6.7074    0.2561 H   0  0
  1  2  1  0
  2  3  1  0
  3  4  1  0
  4  5  1  0
  5  6  1  0
  1  6  1  0
  2  7  1  0
  1  8  1  0
  6  9  1  0
  3 10  1  0
  9 11  1  0
 11 12  1  0
 11 13  2  0
 14 15  2  0
 15 16  1  0
 16 17  2  0
 17 18  1  0
 12 14  1  0
 12 18  2  0
 10 19  1  0
 20 21  1  0
 19 20  1  0
 20 22  2  0
 23 24  1  0
  7 23  1  0
 25 26  1  0
  8 25  1  0
 25 27  2  0
 23 28  2  0
  5 29  1  0
 29 30  1  0
 32 33  2  0
 33 34  1  0
 34 35  2  0
 31 35  1  0
 31 30  2  0
 30 32  1  0
 34 36  1  0
 32 37  1  0
 38 39  1  0
 39 40  2  0
 40 41  1  0
 37 38  1  0
 42 43  2  0
 43 44  1  0
 44 45  2  0
 45 46  1  0
 41 42  1  0
 41 46  2  0
 38 47  2  0
 36 48  2  0
 36 49  1  0
 49 50  1  0
 15 51  1  0
 52 53  1  0
 53 54  1  0
 54 55  1  0
 51 52  1  0
 56 57  1  0
 57 58  1  0
 58 59  1  0
 51 56  1  0
 60 61  1  0
 61 62  1  0
 62 63  1  0
 51 60  1  0
  1 64  1  0
  2 65  1  0
  3 66  1  0
  5 67  1  0
  6 68  1  0
  9 69  1  0
 10 70  1  0
 10 71  1  0
 14 72  1  0
 16 73  1  0
 17 74  1  0
 18 75  1  0
 21 76  1  0
 21 77  1  0
 21 78  1  0
 24 79  1  0
 24 80  1  0
 24 81  1  0
 26 82  1  0
 26 83  1  0
 26 84  1  0
 31 85  1  0
 33 86  1  0
 35 87  1  0
 37 88  1  0
 39 89  1  0
 40 90  1  0
 42 91  1  0
 43 92  1  0
 44 93  1  0
 45 94  1  0
 46 95  1  0
 50 96  1  0
 50 97  1  0
 50 98  1  0
 52 99  1  0
 52100  1  0
 53101  1  0
 53102  1  0
 54103  1  0
 54104  1  0
 55105  1  0
 55106  1  0
 55107  1  0
 56108  1  0
 56109  1  0
 57110  1  0
 57111  1  0
 58112  1  0
 58113  1  0
 59114  1  0
 59115  1  0
 59116  1  0
 60117  1  0
 60118  1  0
 61119  1  0
 61120  1  0
 62121  1  0
 62122  1  0
 63123  1  0
 63124  1  0
 63125  1  0
M  END
> <Name>
MCP2009_17

> <Clean Energy>
47.43

$$$$
MCP2009_4R
  SciTegic12132405553D

 37 38  0  0  0  0            999 V2000
    0.2260   -0.5597    1.5588 C   0  0  1  0  0  0
   -0.2685    0.7303    0.9230 C   0  0  1  0  0  0
    0.0816    0.7074   -0.5781 C   0  0  2  0  0  0
    1.5089    0.5993   -0.7495 O   0  0
    2.0228   -0.6168   -0.1703 C   0  0  2  0  0  0
    1.7460   -0.6462    1.3549 C   0  0  2  0  0  0
   -1.6800    0.8329    1.0874 O   0  0
   -0.0744   -0.5570    2.9511 O   0  0
    2.2871   -1.8670    1.9618 N   0  0
   -0.4073    2.0026   -1.2782 C   0  0
    3.4307   -0.6781   -0.3829 O   0  0
    0.2275    3.1770   -0.7307 O   0  0
    1.9010   -3.1105    1.6008 C   0  0
    2.4361   -4.3897    2.2034 C   0  0
    1.0484   -3.2499    0.7157 O   0  0
    1.8501   -5.6226    1.6453 C   0  0
    2.2244   -6.8216    2.0787 C   0  0
    3.2239   -6.9377    3.1160 C   0  0
    3.7692   -5.8447    3.6370 C   0  0
    3.3733   -4.5052    3.1762 C   0  0
    4.3344   -2.9232    4.1058 I   0  0
   -0.2657   -1.4140    1.0774 H   0  0
    0.2218    1.5888    1.4020 H   0  0
   -0.4094   -0.1587   -1.0438 H   0  0
    1.5410   -1.4763   -0.6538 H   0  0
    2.2253    0.2224    1.8271 H   0  0
   -2.1159    0.0570    0.6555 H   0  0
    0.3690    0.2167    3.3781 H   0  0
    2.9389   -1.7550    2.6396 H   0  0
   -0.1595    1.9377   -2.3470 H   0  0
   -1.4968    2.0900   -1.1622 H   0  0
    3.8604    0.0983    0.0535 H   0  0
   -0.0112    3.2998    0.2177 H   0  0
    1.1158   -5.5528    0.8840 H   0  0
    1.7891   -7.6945    1.6627 H   0  0
    3.5219   -7.8953    3.4608 H   0  0
    4.5021   -5.9390    4.3977 H   0  0
  1  2  1  0
  2  3  1  0
  3  4  1  0
  4  5  1  0
  5  6  1  0
  1  6  1  0
  2  7  1  0
  1  8  1  0
  6  9  1  0
  3 10  1  0
  5 11  1  0
 10 12  1  0
  9 13  1  0
 13 14  1  0
 13 15  2  0
 16 17  2  0
 17 18  1  0
 18 19  2  0
 19 20  1  0
 14 16  1  0
 14 20  2  0
 20 21  1  0
  1 22  1  0
  2 23  1  0
  3 24  1  0
  5 25  1  0
  6 26  1  0
  7 27  1  0
  8 28  1  0
  9 29  1  0
 10 30  1  0
 10 31  1  0
 11 32  1  0
 12 33  1  0
 16 34  1  0
 17 35  1  0
 18 36  1  0
 19 37  1  0
M  END
> <Name>
MCP2009_4R

> <Clean Energy>
6.62177

$$$$
MCP2009_7S
  SciTegic12132405553D

 37 38  0  0  0  0            999 V2000
    0.0528   -0.4355    1.4933 C   0  0  1  0  0  0
   -0.3280    0.9124    0.9007 C   0  0  1  0  0  0
    0.0640    0.9250   -0.5900 C   0  0  2  0  0  0
    1.4840    0.7184   -0.7282 O   0  0
    1.8898   -0.5549   -0.1873 C   0  0  1  0  0  0
    1.5676   -0.6250    1.3278 C   0  0  2  0  0  0
   -1.7327    1.1118    1.0314 O   0  0
   -0.2888   -0.4683    2.8758 O   0  0
    1.9944   -1.9060    1.8934 N   0  0
   -0.3085    2.2800   -1.2470 C   0  0
    1.5267   -3.1006    1.4601 C   0  0
    1.9856   -4.3729    2.0609 C   0  0
    0.6974   -3.1672    0.5446 O   0  0
    1.4383   -5.6297    1.5441 C   0  0
    1.8275   -6.7937    2.0598 C   0  0
    2.8044   -6.8224    3.1457 C   0  0
    3.3048   -5.6837    3.6190 C   0  0
    2.8779   -4.4035    3.0533 C   0  0
    0.3936    3.3811   -0.6333 O   0  0
    1.1837   -1.5928   -0.8639 O   0  0
    4.6824   -5.7232    5.1504 I   0  0
   -0.4845   -1.2310    0.9619 H   0  0
    0.2086    1.7122    1.4293 H   0  0
   -0.4746    0.1172   -1.1051 H   0  0
    2.9690   -0.6934   -0.3310 H   0  0
    2.0949    0.1849    1.8505 H   0  0
   -2.2105    0.3884    0.5550 H   0  0
    0.1961    0.2526    3.3479 H   0  0
    2.6547   -1.8805    2.6248 H   0  0
   -0.0346    2.2404   -2.3106 H   0  0
   -1.3917    2.4429   -1.1563 H   0  0
    0.7292   -5.6120    0.7560 H   0  0
    1.4282   -7.7006    1.6820 H   0  0
    3.1145   -7.7497    3.5565 H   0  0
    3.2803   -3.5041    3.4350 H   0  0
    0.1366    3.4826    0.3128 H   0  0
    1.4597   -2.4689   -0.4986 H   0  0
  1  2  1  0
  2  3  1  0
  3  4  1  0
  4  5  1  0
  5  6  1  0
  1  6  1  0
  2  7  1  0
  1  8  1  0
  6  9  1  0
  3 10  1  0
  9 11  1  0
 11 12  1  0
 11 13  2  0
 14 15  2  0
 15 16  1  0
 16 17  2  0
 17 18  1  0
 12 14  1  0
 12 18  2  0
 10 19  1  0
  5 20  1  0
 17 21  1  0
  1 22  1  0
  2 23  1  0
  3 24  1  0
  5 25  1  0
  6 26  1  0
  7 27  1  0
  8 28  1  0
  9 29  1  0
 10 30  1  0
 10 31  1  0
 14 32  1  0
 15 33  1  0
 16 34  1  0
 18 35  1  0
 19 36  1  0
 20 37  1  0
M  END
> <Name>
MCP2009_7S

> <Clean Energy>
1.179

$$$$
DHSL2009-210
  DSViewer          3D                             0

 80 84  0  0  0  0  0  0  0  0999 V2000
   -3.4448   -1.7181    0.2269 O   0  0
   -4.2283   -2.9391    0.2608 C   0  0
   -4.6798   -3.4994    1.6529 C   0  0  1  0  0  0
   -3.8135   -3.0570    2.7178 O   0  0
   -3.9023   -3.8609    3.9185 C   0  0  2  0  0  0
   -3.2404   -5.1307    3.6848 O   0  0
   -5.3650   -4.0649    4.4546 C   0  0  2  0  0  0
   -5.2593   -5.2355    5.2938 O   0  0
   -6.4304   -4.2266    3.3129 C   0  0  1  0  0  0
   -7.7647   -4.0482    3.8555 O   0  0
   -6.1570   -3.2459    2.1241 C   0  0  1  0  0  0
   -6.3683   -1.9022    2.6024 N   0  0
   -1.8179   -5.0438    3.4817 C   0  0
   -6.3241   -5.6033    6.1799 C   0  0
   -5.9281   -6.9404    6.6862 C   0  0
   -8.8849   -4.5333    3.0715 C   0  0
   -9.9590   -5.1385    3.9072 C   0  0
   -4.1523   -0.5730    0.7108 C   0  0
  -10.9493   -5.9445    3.2923 C   0  0
  -11.9423   -6.5839    4.0588 C   0  0
  -11.9698   -6.4158    5.4543 C   0  0
  -11.0136   -5.5969    6.0796 C   0  0
  -10.0246   -4.9555    5.3109 C   0  0
   -5.6037   -7.1557    8.0459 C   0  0
   -5.8413   -8.0334    5.7880 C   0  0
   -5.4126   -9.2978    6.2303 C   0  0
   -5.0694   -9.4897    7.5800 C   0  0
   -5.1761   -8.4216    8.4893 C   0  0
   -7.3481   -1.0086    2.2559 C   0  0
   -8.2348   -1.3059    1.4218 O   0  0
   -7.2866    0.3075    2.7943 C   0  0
   -7.4987    1.4470    1.9734 C   0  0
   -7.0905    2.7343    2.4031 C   0  0
   -6.6943    2.9195    3.7419 C   0  0
   -6.6218    1.8172    4.6124 C   0  0
   -6.8889    0.5199    4.1373 C   0  0
   -3.6372    0.8193    0.2372 C   0  0
   -4.7305    1.8305    0.6705 C   0  0
   -4.5900    3.3607    0.5591 C   0  0
   -5.9081    4.0709    0.7124 C   0  0
   -6.0829    5.0829   -0.0023 O   0  0
   -6.9834    3.7709    1.5245 N   0  0
   -5.1392   -2.6639   -0.2708 H   0  0
   -3.5515   -3.6799   -0.1649 H   0  0
   -4.5434   -4.5738    1.5297 H   0  0
   -3.3178   -3.3109    4.6560 H   0  0
   -5.7323   -3.2413    5.0668 H   0  0
   -6.4340   -5.2471    2.9300 H   0  0
   -6.8514   -3.3225    1.2874 H   0  0
   -5.7288   -1.5277    3.2886 H   0  0
   -1.3142   -5.0130    4.4478 H   0  0
   -1.4769   -5.9146    2.9218 H   0  0
   -1.5855   -4.1379    2.9218 H   0  0
   -6.3108   -4.9014    7.0138 H   0  0
   -7.2251   -5.7162    5.5769 H   0  0
   -9.3177   -3.6495    2.6026 H   0  0
   -8.4831   -5.3364    2.4537 H   0  0
   -5.1524   -0.6994    0.2962 H   0  0
   -3.9997   -0.6180    1.7891 H   0  0
  -10.9472   -6.0750    2.2101 H   0  0
  -12.6902   -7.2094    3.5716 H   0  0
  -12.7310   -6.9193    6.0503 H   0  0
  -11.0389   -5.4594    7.1605 H   0  0
   -9.3013   -4.3095    5.8085 H   0  0
   -5.6843   -6.3365    8.7604 H   0  0
   -6.1085   -7.8995    4.7398 H   0  0
   -5.3465  -10.1285    5.5277 H   0  0
   -4.7211  -10.4647    7.9207 H   0  0
   -4.9270   -8.5752    9.5393 H   0  0
   -7.9803    1.3323    1.0023 H   0  0
   -6.4437    3.9163    4.1046 H   0  0
   -6.3576    1.9688    5.6590 H   0  0
   -6.7869   -0.3276    4.8152 H   0  0
   -2.7340    1.0488    0.8026 H   0  0
   -3.6106    0.8102   -0.8524 H   0  0
   -5.5666    1.6057    0.0083 H   0  0
   -4.8251    1.6640    1.7435 H   0  0
   -3.9826    3.6797    1.4061 H   0  0
   -4.2590    3.5693   -0.4583 H   0  0
   -7.7860    4.3815    1.4694 H   0  0
  1  2  1  0  0  0
  3  2  1  0  0  0
  3  4  1  0  0  0
  5  4  1  0  0  0
  5  6  1  0  0  0
  7  5  1  0  0  0
  7  8  1  0  0  0
  7  9  1  0  0  0
  9 10  1  0  0  0
  9 11  1  0  0  0
 11  3  1  0  0  0
 11 12  1  0  0  0
  6 13  1  0  0  0
  8 14  1  0  0  0
 14 15  1  0  0  0
 10 16  1  0  0  0
 16 17  1  0  0  0
  1 18  1  0  0  0
 19 20  2  0  0  0
 20 21  1  0  0  0
 21 22  2  0  0  0
 22 23  1  0  0  0
 17 19  1  0  0  0
 17 23  2  0  0  0
 25 26  1  0  0  0
 26 27  2  0  0  0
 27 28  1  0  0  0
 24 28  2  0  0  0
 24 15  1  0  0  0
 15 25  2  0  0  0
 12 29  1  0  0  0
 29 30  2  0  0  0
 29 31  1  0  0  0
 32 33  1  0  0  0
 33 34  2  0  0  0
 34 35  1  0  0  0
 35 36  2  0  0  0
 36 31  1  0  0  0
 32 31  2  0  0  0
 18 37  1  0  0  0
 37 38  1  0  0  0
 38 39  1  0  0  0
 39 40  1  0  0  0
 40 41  2  0  0  0
 40 42  1  0  0  0
 42 33  1  0  0  0
  2 43  1  0  0  0
  2 44  1  0  0  0
  3 45  1  0  0  0
  5 46  1  0  0  0
  7 47  1  0  0  0
  9 48  1  0  0  0
 11 49  1  0  0  0
 12 50  1  0  0  0
 13 51  1  0  0  0
 13 52  1  0  0  0
 13 53  1  0  0  0
 14 54  1  0  0  0
 14 55  1  0  0  0
 16 56  1  0  0  0
 16 57  1  0  0  0
 18 58  1  0  0  0
 18 59  1  0  0  0
 19 60  1  0  0  0
 20 61  1  0  0  0
 21 62  1  0  0  0
 22 63  1  0  0  0
 23 64  1  0  0  0
 24 65  1  0  0  0
 25 66  1  0  0  0
 26 67  1  0  0  0
 27 68  1  0  0  0
 28 69  1  0  0  0
 32 70  1  0  0  0
 34 71  1  0  0  0
 35 72  1  0  0  0
 36 73  1  0  0  0
 37 74  1  0  0  0
 37 75  1  0  0  0
 38 76  1  0  0  0
 38 77  1  0  0  0
 39 78  1  0  0  0
 39 79  1  0  0  0
 42 80  1  0  0  0
M  END
> <Clean Energy>
-0.00914627

$$$$
DHSL2009-222
  DSViewer          3D                             0

 61 63  0  0  0  0  0  0  0  0999 V2000
    0.1658   -0.1629    0.8060 O   0  0
   -1.0884   -0.2690    1.5148 C   0  0
   -1.5982    1.1267    1.9974 C   0  0  1  0  0  0
   -1.6367    2.1071    0.9300 O   0  0
   -2.7163    1.9819   -0.0288 C   0  0  2  0  0  0
   -2.6735    3.0760   -0.9704 O   0  0
   -4.1088    2.0248    0.6639 C   0  0  2  0  0  0
   -4.3541    3.3735    1.1437 O   0  0
   -4.1795    0.9725    1.8160 C   0  0  1  0  0  0
   -4.1705   -0.3762    1.3057 O   0  0
   -2.9607    1.1311    2.7750 C   0  0  1  0  0  0
   -3.0274    0.1583    3.7742 N   0  0
   -1.5574    3.0881   -1.8758 C   0  0
   -5.7432    3.7436    1.2871 C   0  0
   -5.8766    5.1372    1.7763 C   0  0
   -5.4001   -0.9497    0.8349 C   0  0
   -5.0619   -2.3034    0.3303 C   0  0
    0.6440   -1.4264    0.2838 C   0  0
    1.8519   -1.2554   -0.4975 C   0  0
    2.4601   -2.2822   -1.1059 C   0  0
   -5.5925   -3.4713    0.9274 C   0  0
   -5.2220   -4.7471    0.4625 C   0  0
   -4.3262   -4.8701   -0.6146 C   0  0
   -3.7857   -3.7195   -1.2150 C   0  0
   -4.1594   -2.4445   -0.7517 C   0  0
   -5.3344    5.5060    3.0297 C   0  0
   -6.5803    6.1116    1.0280 C   0  0
   -6.7739    7.4088    1.5367 C   0  0
   -6.2528    7.7526    2.7963 C   0  0
   -5.5276    6.8039    3.5396 C   0  0
   -2.4535    0.1879    4.7878 N   0  0
   -1.8935    0.2068    5.8047 N   0  0
   -1.7966   -0.6431    0.7755 H   0  0
   -0.8600   -0.8627    2.4000 H   0  0
   -0.8203    1.4852    2.6715 H   0  0
   -2.5166    1.0479   -0.5541 H   0  0
   -4.9175    1.8343   -0.0416 H   0  0
   -5.1338    1.0738    2.3328 H   0  0
   -3.0226    2.0438    3.3677 H   0  0
   -0.6279    3.0981   -1.3066 H   0  0
   -1.5893    2.1977   -2.5038 H   0  0
   -1.6085    3.9776   -2.5038 H   0  0
   -6.1653    3.7188    0.2824 H   0  0
   -6.1475    3.0950    2.0642 H   0  0
   -6.0485   -1.0669    1.7032 H   0  0
   -5.7273   -0.3471   -0.0124 H   0  0
    0.9206   -2.0304    1.1480 H   0  0
   -0.1205   -1.7816   -0.4072 H   0  0
    2.3360   -0.2888   -0.6370 H   0  0
    1.8954   -3.1810   -1.3535 H   0  0
    3.5197   -2.2188   -1.3535 H   0  0
   -6.2955   -3.3871    1.7561 H   0  0
   -5.6290   -5.6402    0.9366 H   0  0
   -4.0507   -5.8578   -0.9842 H   0  0
   -3.0780   -3.8157   -2.0384 H   0  0
   -3.7465   -1.5590   -1.2350 H   0  0
   -4.7614    4.7821    3.6090 H   0  0
   -6.9790    5.8593    0.0454 H   0  0
   -7.3271    8.1466    0.9556 H   0  0
   -6.4108    8.7541    3.1964 H   0  0
   -5.1151    7.0748    4.5115 H   0  0
  1  2  1  0  0  0
  3  2  1  0  0  0
  3  4  1  0  0  0
  4  5  1  0  0  0
  5  6  1  0  0  0
  5  7  1  0  0  0
  7  8  1  0  0  0
  7  9  1  0  0  0
  9 10  1  0  0  0
  9 11  1  0  0  0
  3 11  1  0  0  0
 11 12  1  0  0  0
  6 13  1  0  0  0
  8 14  1  0  0  0
 14 15  1  0  0  0
 10 16  1  0  0  0
 16 17  1  0  0  0
  1 18  1  0  0  0
 18 19  1  0  0  0
 19 20  2  0  0  0
 21 22  2  0  0  0
 22 23  1  0  0  0
 23 24  2  0  0  0
 24 25  1  0  0  0
 17 21  1  0  0  0
 17 25  2  0  0  0
 27 28  1  0  0  0
 28 29  2  0  0  0
 29 30  1  0  0  0
 26 30  2  0  0  0
 26 15  1  0  0  0
 15 27  2  0  0  0
 12 31  2  0  0  0
 31 32  2  0  0  0
  2 33  1  0  0  0
  2 34  1  0  0  0
  3 35  1  0  0  0
  5 36  1  0  0  0
  7 37  1  0  0  0
  9 38  1  0  0  0
 11 39  1  0  0  0
 13 40  1  0  0  0
 13 41  1  0  0  0
 13 42  1  0  0  0
 14 43  1  0  0  0
 14 44  1  0  0  0
 16 45  1  0  0  0
 16 46  1  0  0  0
 18 47  1  0  0  0
 18 48  1  0  0  0
 19 49  1  0  0  0
 20 50  1  0  0  0
 20 51  1  0  0  0
 21 52  1  0  0  0
 22 53  1  0  0  0
 23 54  1  0  0  0
 24 55  1  0  0  0
 25 56  1  0  0  0
 26 57  1  0  0  0
 27 58  1  0  0  0
 28 59  1  0  0  0
 29 60  1  0  0  0
 30 61  1  0  0  0
M  END
> <Clean Energy>
186.289

$$$$
DHSL2009-223
  DSViewer          3D                             0

 72 75  0  0  0  0  0  0  0  0999 V2000
   -0.6676   -2.4287   -1.5915 O   0  0
   -1.7392   -2.6486   -0.6446 C   0  0
   -2.4616   -1.3396   -0.1979 C   0  0  1  0  0  0
   -2.7462   -0.4265   -1.2813 O   0  0
   -3.8817   -0.7332   -2.1205 C   0  0  2  0  0  0
   -4.0545    0.2973   -3.1157 O   0  0
   -5.1925   -0.8345   -1.2850 C   0  0  2  0  0  0
   -5.5602    0.4651   -0.7305 O   0  0
   -4.9934   -1.9299   -0.1845 C   0  0  1  0  0  0
   -4.7978   -3.2543   -0.7429 O   0  0
   -3.7454   -1.5551    0.6811 C   0  0  1  0  0  0
   -3.5499   -2.4859    1.7038 N   0  0
   -2.9582    0.4371   -4.0387 C   0  0
   -6.9694    0.6252   -0.4166 C   0  0
   -7.3049    1.9939    0.0641 C   0  0
   -5.8972   -3.9233   -1.3850 C   0  0
   -5.4020   -5.2413   -1.8534 C   0  0
   -0.1316   -3.6685   -2.1203 C   0  0
    1.0293   -3.4622   -2.9695 C   0  0
    1.6178   -4.4827   -3.6270 C   0  0
   -5.6776   -6.4221   -1.1250 C   0  0
   -5.2159   -7.6710   -1.5829 C   0  0
   -4.4768   -7.7563   -2.7763 C   0  0
   -4.1796   -6.5890   -3.5010 C   0  0
   -4.6343   -5.3386   -3.0396 C   0  0
   -8.1953    2.8213   -0.6648 C   0  0
   -6.7927    2.4787    1.2923 C   0  0
   -7.1952    3.7331    1.7970 C   0  0
   -8.1015    4.5278    1.0726 C   0  0
   -8.5941    4.0752   -0.1636 C   0  0
   -2.8826   -2.2777    2.6374 N   0  0
   -2.2145   -2.0486    3.5590 N   0  0
    2.7444   -4.4358   -4.4658 C   0  0
    3.2272   -5.6483   -5.0319 C   0  0
    4.3499   -5.6720   -5.8809 C   0  0
    5.0222   -4.4779   -6.1871 C   0  0
    4.5685   -3.2645   -5.6429 C   0  0
    3.4443   -3.2429   -4.7944 C   0  0
   -2.4658   -3.2486   -1.1923 H   0  0
   -1.2437   -3.0609    0.2344 H   0  0
   -1.7121   -0.7980    0.3790 H   0  0
   -3.6207   -1.6606   -2.6303 H   0  0
   -6.0579   -1.0661   -1.9059 H   0  0
   -5.9082   -2.0370    0.3985 H   0  0
   -3.9351   -0.6602    1.2737 H   0  0
   -2.0281    0.5557   -3.4828 H   0  0
   -2.8957   -0.4522   -4.6660 H   0  0
   -3.1208    1.3135   -4.6660 H   0  0
   -7.4965    0.4911   -1.3612 H   0  0
   -7.1623   -0.0512    0.4160 H   0  0
   -6.6465   -4.1049   -0.6146 H   0  0
   -6.1523   -3.3328   -2.2650 H   0  0
    0.2210   -4.2358   -1.2590 H   0  0
   -0.9077   -4.0817   -2.7645 H   0  0
    1.4855   -2.4842   -3.1224 H   0  0
    1.1327   -5.4450   -3.4636 H   0  0
   -6.2523   -6.3691   -0.2004 H   0  0
   -5.4312   -8.5743   -1.0120 H   0  0
   -4.1349   -8.7257   -3.1389 H   0  0
   -3.5969   -6.6533   -4.4200 H   0  0
   -4.3903   -4.4392   -3.6051 H   0  0
   -8.5805    2.4872   -1.6282 H   0  0
   -6.0791    1.8784    1.8567 H   0  0
   -6.8044    4.0895    2.7501 H   0  0
   -8.4214    5.4918    1.4681 H   0  0
   -9.2850    4.6964   -0.7334 H   0  0
   -1.9105   -2.9156    3.9783 H   0  0
    2.7215   -6.5877   -4.8083 H   0  0
    4.6987   -6.6152   -6.3014 H   0  0
    5.8919   -4.4929   -6.8440 H   0  0
    5.0903   -2.3372   -5.8797 H   0  0
    3.1111   -2.2888   -4.3860 H   0  0
  1  2  1  0  0  0
  3  2  1  0  0  0
  3  4  1  0  0  0
  5  4  1  0  0  0
  5  6  1  0  0  0
  7  5  1  0  0  0
  7  8  1  0  0  0
  7  9  1  0  0  0
  9 10  1  0  0  0
  9 11  1  0  0  0
 11  3  1  0  0  0
 11 12  1  0  0  0
  6 13  1  0  0  0
  8 14  1  0  0  0
 14 15  1  0  0  0
 10 16  1  0  0  0
 16 17  1  0  0  0
  1 18  1  0  0  0
 18 19  1  0  0  0
 19 20  2  0  0  0
 21 22  2  0  0  0
 22 23  1  0  0  0
 23 24  2  0  0  0
 24 25  1  0  0  0
 17 21  1  0  0  0
 17 25  2  0  0  0
 27 28  1  0  0  0
 28 29  2  0  0  0
 29 30  1  0  0  0
 26 30  2  0  0  0
 26 15  1  0  0  0
 15 27  2  0  0  0
 12 31  2  0  0  0
 31 32  2  0  0  0
 20 33  1  0  0  0
 34 35  1  0  0  0
 35 36  2  0  0  0
 36 37  1  0  0  0
 37 38  2  0  0  0
 38 33  1  0  0  0
 34 33  2  0  0  0
  2 39  1  0  0  0
  2 40  1  0  0  0
  3 41  1  0  0  0
  5 42  1  0  0  0
  7 43  1  0  0  0
  9 44  1  0  0  0
 11 45  1  0  0  0
 13 46  1  0  0  0
 13 47  1  0  0  0
 13 48  1  0  0  0
 14 49  1  0  0  0
 14 50  1  0  0  0
 16 51  1  0  0  0
 16 52  1  0  0  0
 18 53  1  0  0  0
 18 54  1  0  0  0
 19 55  1  0  0  0
 20 56  1  0  0  0
 21 57  1  0  0  0
 22 58  1  0  0  0
 23 59  1  0  0  0
 24 60  1  0  0  0
 25 61  1  0  0  0
 26 62  1  0  0  0
 27 63  1  0  0  0
 28 64  1  0  0  0
 29 65  1  0  0  0
 30 66  1  0  0  0
 32 67  1  0  0  0
 34 68  1  0  0  0
 35 69  1  0  0  0
 36 70  1  0  0  0
 37 71  1  0  0  0
 38 72  1  0  0  0
M  END
> <Clean Energy>
-0.165867

$$$$
DHSL2009-224
  DSViewer          3D                             0

 61 63  0  0  0  0  0  0  0  0999 V2000
    0.9508   -3.3683   -1.8159 O   0  0
   -0.2440   -3.2199   -1.0119 C   0  0
   -0.4576   -1.7418   -0.5580 C   0  0  1  0  0  0
   -0.3281   -0.8003   -1.6484 O   0  0
   -1.4406   -0.7250   -2.5716 C   0  0  2  0  0  0
   -1.1923    0.3096   -3.5464 O   0  0
   -2.7762   -0.3774   -1.8507 C   0  0  2  0  0  0
   -2.7225    0.9966   -1.3901 O   0  0
   -3.0349   -1.3778   -0.6794 C   0  0  1  0  0  0
   -3.3223   -2.7065   -1.1677 O   0  0
   -1.7757   -1.4562    0.2386 C   0  0  1  0  0  0
   -1.9814   -2.4164    1.3370 N   0  0
   -0.1212    0.0465   -4.4665 C   0  0
   -4.0018    1.6513   -1.2253 C   0  0
   -3.8204    3.0531   -0.7743 C   0  0
   -4.6526   -3.0165   -1.6203 C   0  0
   -4.6192   -4.4255   -2.0885 C   0  0
    1.1391   -4.7090   -2.3327 C   0  0
    2.3123   -4.8176   -3.1826 C   0  0
    2.6536   -5.9628   -3.7917 C   0  0
   -3.8143   -4.7741   -3.2003 C   0  0
   -3.7210   -6.1107   -3.6286 C   0  0
   -4.4445   -7.1134   -2.9591 C   0  0
   -5.2574   -6.7833   -1.8601 C   0  0
   -5.3499   -5.4452   -1.4324 C   0  0
   -3.1572    3.3244    0.4460 C   0  0
   -4.3392    4.1393   -1.5203 C   0  0
   -4.2359    5.4578   -1.0382 C   0  0
   -3.5930    5.7078    0.1872 C   0  0
   -3.0499    4.6428    0.9281 C   0  0
   -1.0649   -3.4823   -1.6792 H   0  0
   -0.0561   -3.8157   -0.1186 H   0  0
    0.3897   -1.5236    0.0920 H   0  0
   -1.4595   -1.6950   -3.0685 H   0  0
   -3.6248   -0.3970   -2.5345 H   0  0
   -3.9333   -1.0811   -0.1381 H   0  0
   -1.6552   -0.4982    0.7443 H   0  0
   -1.1922   -2.7456    1.8744 H   0  0
   -2.9117   -2.7456    1.5524 H   0  0
    0.7890   -0.1771   -3.9101 H   0  0
   -0.3822   -0.8058   -5.0938 H   0  0
    0.0424    0.9227   -5.0938 H   0  0
   -4.4496    1.6922   -2.2182 H   0  0
   -4.5100    1.1214   -0.4196 H   0  0
   -5.3037   -2.9684   -0.7474 H   0  0
   -4.8502   -2.3808   -2.4833 H   0  0
    1.3320   -5.3421   -1.4666 H   0  0
    0.2803   -4.9090   -2.9735 H   0  0
    2.9835   -3.9810   -3.3770 H   0  0
    1.8877   -6.6978   -4.0392 H   0  0
    3.6970   -6.1585   -4.0392 H   0  0
   -3.2589   -4.0028   -3.7339 H   0  0
   -3.0889   -6.3690   -4.4782 H   0  0
   -4.3750   -8.1488   -3.2926 H   0  0
   -5.8148   -7.5630   -1.3410 H   0  0
   -5.9918   -5.1970   -0.5871 H   0  0
   -2.7234    2.5071    1.0222 H   0  0
   -4.8248    3.9578   -2.4791 H   0  0
   -4.6533    6.2844   -1.6132 H   0  0
   -3.5156    6.7280    0.5630 H   0  0
   -2.5465    4.8389    1.8748 H   0  0
  1  2  1  0  0  0
  3  2  1  0  0  0
  3  4  1  0  0  0
  5  4  1  0  0  0
  5  6  1  0  0  0
  7  5  1  0  0  0
  7  8  1  0  0  0
  7  9  1  0  0  0
  9 10  1  0  0  0
  9 11  1  0  0  0
 11  3  1  0  0  0
 11 12  1  0  0  0
  6 13  1  0  0  0
  8 14  1  0  0  0
 14 15  1  0  0  0
 10 16  1  0  0  0
 16 17  1  0  0  0
  1 18  1  0  0  0
 18 19  1  0  0  0
 19 20  2  0  0  0
 21 22  2  0  0  0
 22 23  1  0  0  0
 23 24  2  0  0  0
 24 25  1  0  0  0
 17 21  1  0  0  0
 17 25  2  0  0  0
 27 28  1  0  0  0
 28 29  2  0  0  0
 29 30  1  0  0  0
 26 30  2  0  0  0
 26 15  1  0  0  0
 15 27  2  0  0  0
  2 31  1  0  0  0
  2 32  1  0  0  0
  3 33  1  0  0  0
  5 34  1  0  0  0
  7 35  1  0  0  0
  9 36  1  0  0  0
 11 37  1  0  0  0
 12 38  1  0  0  0
 12 39  1  0  0  0
 13 40  1  0  0  0
 13 41  1  0  0  0
 13 42  1  0  0  0
 14 43  1  0  0  0
 14 44  1  0  0  0
 16 45  1  0  0  0
 16 46  1  0  0  0
 18 47  1  0  0  0
 18 48  1  0  0  0
 19 49  1  0  0  0
 20 50  1  0  0  0
 20 51  1  0  0  0
 21 52  1  0  0  0
 22 53  1  0  0  0
 23 54  1  0  0  0
 24 55  1  0  0  0
 25 56  1  0  0  0
 26 57  1  0  0  0
 27 58  1  0  0  0
 28 59  1  0  0  0
 29 60  1  0  0  0
 30 61  1  0  0  0
M  END
> <Clean Energy>
-0.0770404

$$$$
DHSL2009-225
  DSViewer          3D                             0

 71 74  0  0  0  0  0  0  0  0999 V2000
    0.0699   -4.5985   -0.1397 O   0  0
   -0.6877   -5.8673   -0.3547 C   0  0
    0.1367   -7.2199   -0.1434 C   0  0  1  0  0  0
    1.0233   -7.1433    1.0002 O   0  0
    0.4185   -7.2064    2.3119 C   0  0  2  0  0  0
    1.4478   -7.1559    3.3202 O   0  0
   -0.3728   -8.5318    2.4996 C   0  0  2  0  0  0
    0.5567   -9.6492    2.4843 O   0  0
   -1.4530   -8.6491    1.3760 C   0  0  1  0  0  0
   -2.4827   -7.6472    1.5270 O   0  0
   -0.7888   -8.4847   -0.0283 C   0  0  1  0  0  0
   -1.8144   -8.5321   -1.0852 N   0  0
    2.1457   -5.9022    3.4239 C   0  0
    0.1064  -10.8480    3.1554 C   0  0
    1.1250  -11.9257    3.0689 C   0  0
   -3.5358   -7.8637    2.4824 C   0  0
   -4.3910   -6.6525    2.4399 C   0  0
   -0.6279   -3.2758   -0.1044 C   0  0
    0.2286   -2.1053   -0.0453 C   0  0
   -0.3040   -0.8661   -0.0270 C   0  0
   -3.8778   -5.4134    2.8943 C   0  0
   -4.6464   -4.2378    2.7989 C   0  0
   -5.9419   -4.2856    2.2560 C   0  0
   -6.4723   -5.5120    1.8182 C   0  0
   -5.7056   -6.6898    1.9156 C   0  0
    1.6373  -12.5478    4.2343 C   0  0
    1.5747  -12.3843    1.8074 C   0  0
    2.4920  -13.4495    1.7141 C   0  0
    2.9742  -14.0711    2.8792 C   0  0
    2.5524  -13.6139    4.1392 C   0  0
    0.3559    0.3724    0.0032 C   0  0
   -0.4258    1.5610    0.0114 C   0  0
    0.1707    2.8341    0.0257 C   0  0
    1.5687    2.9534    0.0336 C   0  0
    2.3657    1.7962    0.0307 C   0  0
    1.7681    0.5207    0.0167 C   0  0
   -1.4592   -5.8470    0.4150 H   0  0
   -0.9673   -5.8319   -1.4076 H   0  0
    0.8250   -7.3508   -0.9783 H   0  0
   -0.2020   -6.3143    2.3972 H   0  0
   -0.8459   -8.5987    3.4793 H   0  0
   -1.9812   -9.5978    1.4716 H   0  0
   -0.1585   -9.3531   -0.2198 H   0  0
   -2.7936   -8.5483   -0.8383 H   0  0
   -1.5381   -8.5483   -2.0565 H   0  0
    2.2859   -5.6503    4.4750 H   0  0
    3.1176   -5.9861    2.9376 H   0  0
    1.5623   -5.1204    2.9376 H   0  0
    0.0131  -10.5840    4.2089 H   0  0
   -0.7664  -11.1917    2.6003 H   0  0
   -4.1265   -8.7048    2.1193 H   0  0
   -3.0682   -7.9104    3.4659 H   0  0
   -1.1524   -3.1881   -1.0559 H   0  0
   -1.1881   -3.2572    0.8304 H   0  0
    1.3168   -2.1592   -0.0133 H   0  0
   -1.3940   -0.8654   -0.0379 H   0  0
   -2.8771   -5.3638    3.3235 H   0  0
   -4.2377   -3.2889    3.1460 H   0  0
   -6.5338   -3.3739    2.1746 H   0  0
   -7.4793   -5.5498    1.4028 H   0  0
   -6.1324   -7.6361    1.5832 H   0  0
    1.3228  -12.2011    5.2187 H   0  0
    1.2098  -11.9110    0.8958 H   0  0
    2.8298  -13.7940    0.7367 H   0  0
    3.6728  -14.9046    2.8058 H   0  0
    2.9354  -14.0867    5.0436 H   0  0
   -1.5138    1.4943    0.0065 H   0  0
   -0.4511    3.7293    0.0307 H   0  0
    2.0330    3.9395    0.0421 H   0  0
    3.4517    1.8884    0.0392 H   0  0
    2.4066   -0.3628    0.0162 H   0  0
  1  2  1  0  0  0
  3  2  1  0  0  0
  3  4  1  0  0  0
  5  4  1  0  0  0
  5  6  1  0  0  0
  7  5  1  0  0  0
  7  8  1  0  0  0
  7  9  1  0  0  0
  9 10  1  0  0  0
  9 11  1  0  0  0
 11  3  1  0  0  0
 11 12  1  0  0  0
  6 13  1  0  0  0
  8 14  1  0  0  0
 14 15  1  0  0  0
 10 16  1  0  0  0
 16 17  1  0  0  0
  1 18  1  0  0  0
 18 19  1  0  0  0
 19 20  2  0  0  0
 21 22  2  0  0  0
 22 23  1  0  0  0
 23 24  2  0  0  0
 24 25  1  0  0  0
 17 21  1  0  0  0
 17 25  2  0  0  0
 27 28  1  0  0  0
 28 29  2  0  0  0
 29 30  1  0  0  0
 26 30  2  0  0  0
 26 15  1  0  0  0
 15 27  2  0  0  0
 20 31  1  0  0  0
 32 33  1  0  0  0
 33 34  2  0  0  0
 34 35  1  0  0  0
 35 36  2  0  0  0
 36 31  1  0  0  0
 32 31  2  0  0  0
  2 37  1  0  0  0
  2 38  1  0  0  0
  3 39  1  0  0  0
  5 40  1  0  0  0
  7 41  1  0  0  0
  9 42  1  0  0  0
 11 43  1  0  0  0
 12 44  1  0  0  0
 12 45  1  0  0  0
 13 46  1  0  0  0
 13 47  1  0  0  0
 13 48  1  0  0  0
 14 49  1  0  0  0
 14 50  1  0  0  0
 16 51  1  0  0  0
 16 52  1  0  0  0
 18 53  1  0  0  0
 18 54  1  0  0  0
 19 55  1  0  0  0
 20 56  1  0  0  0
 21 57  1  0  0  0
 22 58  1  0  0  0
 23 59  1  0  0  0
 24 60  1  0  0  0
 25 61  1  0  0  0
 26 62  1  0  0  0
 27 63  1  0  0  0
 28 64  1  0  0  0
 29 65  1  0  0  0
 30 66  1  0  0  0
 32 67  1  0  0  0
 33 68  1  0  0  0
 34 69  1  0  0  0
 35 70  1  0  0  0
 36 71  1  0  0  0
M  END
> <Clean Energy>
134245

$$$$
DHSL2009-226
  DSViewer          3D                             0

 80 83  0  0  0  0  0  0  0  0999 V2000
    1.0953   -0.4148    4.9285 O   0  0
   -0.0532   -0.8807    4.1916 C   0  0
    0.4186   -1.4688    2.8390 C   0  0  1  0  0  0
    1.2327   -2.6416    3.0873 O   0  0
    1.8027   -3.2605    1.9042 C   0  0  2  0  0  0
    2.7248   -2.3932    1.2029 O   0  0
    0.6595   -3.6949    0.9488 C   0  0  2  0  0  0
    1.2168   -4.3913   -0.1933 O   0  0
   -0.1743   -2.4312    0.5587 C   0  0  1  0  0  0
   -1.2115   -2.8419   -0.3561 O   0  0
   -0.7572   -1.7769    1.8590 C   0  0  1  0  0  0
   -1.7075   -2.6970    2.4226 N   0  0
    3.9176   -2.0559    1.9279 C   0  0
    0.4120   -5.4728   -0.7218 C   0  0
    1.1087   -6.1344   -1.8482 C   0  0
   -1.7422   -1.8476   -1.2558 C   0  0
   -2.9096   -2.3475   -2.0305 C   0  0
    0.7798    0.2830    6.1504 C   0  0
    1.9983    0.7460    6.7832 C   0  0
    1.9964    1.5168    7.8773 C   0  0
   -3.4151   -3.6663   -1.8946 C   0  0
   -4.5245   -4.0943   -2.6468 C   0  0
   -5.1634   -3.2062   -3.5289 C   0  0
   -4.6801   -1.8947   -3.6739 C   0  0
   -3.5555   -1.4730   -2.9380 C   0  0
    1.3568   -7.5280   -1.8336 C   0  0
    1.5166   -5.3812   -2.9749 C   0  0
    2.1606   -6.0066   -4.0598 C   0  0
    2.3919   -7.3943   -4.0353 C   0  0
    1.9926   -8.1538   -2.9212 C   0  0
   -3.0115   -2.8117    2.0361 C   0  0
   -3.5744   -1.8219    1.5067 O   0  0
   -3.6874   -4.0685    2.1012 C   0  0
   -4.9536   -4.2345    1.4830 C   0  0
   -5.5870   -5.4979    1.3860 C   0  0
   -4.9669   -6.6067    2.0000 C   0  0
   -3.7282   -6.4673    2.6452 C   0  0
   -3.0978   -5.2129    2.6951 C   0  0
   -6.7727   -5.7366    0.7468 N   0  0
   -7.3998   -5.0078   -0.2237 C   0  0
   -8.6974   -5.4715   -0.7469 C   0  0
   -8.5837   -5.7905   -2.4757 Cl  0  0
   -6.9190   -3.9565   -0.7083 O   0  0
   -0.4734   -1.6927    4.7852 H   0  0
   -0.6494    0.0079    3.9844 H   0  0
    1.0817   -0.7586    2.3449 H   0  0
    2.4192   -4.0801    2.2733 H   0  0
    0.0057   -4.4508    1.3839 H   0  0
    0.3957   -1.6917   -0.0037 H   0  0
   -1.3362   -0.8700    1.6849 H   0  0
   -1.4315   -3.3253    3.1637 H   0  0
    3.7202   -2.1117    2.9984 H   0  0
    4.7112   -2.7564    1.6677 H   0  0
    4.2269   -1.0436    1.6677 H   0  0
    0.3303   -6.2090    0.0778 H   0  0
   -0.4863   -5.0107   -1.1311 H   0  0
   -2.1100   -1.0433   -0.6186 H   0  0
   -0.9483   -1.6520   -1.9766 H   0  0
    0.2164    1.1714    5.8650 H   0  0
    0.3358   -0.4513    6.8225 H   0  0
    2.9907    0.4959    6.4080 H   0  0
    2.9395    1.8306    8.3246 H   0  0
    1.0516    1.8306    8.3212 H   0  0
   -2.9433   -4.3622   -1.2009 H   0  0
   -4.8898   -5.1163   -2.5460 H   0  0
   -6.0323   -3.5340   -4.0995 H   0  0
   -5.1770   -1.2052   -4.3564 H   0  0
   -3.1807   -0.4583   -3.0725 H   0  0
    1.0547   -8.1266   -0.9743 H   0  0
    1.3327   -4.3073   -3.0073 H   0  0
    2.4802   -5.4165   -4.9187 H   0  0
    2.8805   -7.8809   -4.8795 H   0  0
    2.1759   -9.2281   -2.9006 H   0  0
   -5.4572   -3.3614    1.0682 H   0  0
   -5.4508   -7.5831    1.9756 H   0  0
   -3.2555   -7.3337    3.1078 H   0  0
   -2.1369   -5.1262    3.2023 H   0  0
   -7.2569   -6.5751    1.0340 H   0  0
   -8.8644   -6.4071   -0.2131 H   0  0
   -9.3568   -4.6208   -0.5750 H   0  0
  1  2  1  0  0  0
  3  2  1  0  0  0
  3  4  1  0  0  0
  5  4  1  0  0  0
  5  6  1  0  0  0
  7  5  1  0  0  0
  7  8  1  0  0  0
  7  9  1  0  0  0
  9 10  1  0  0  0
  9 11  1  0  0  0
 11  3  1  0  0  0
 11 12  1  0  0  0
  6 13  1  0  0  0
  8 14  1  0  0  0
 14 15  1  0  0  0
 10 16  1  0  0  0
 16 17  1  0  0  0
  1 18  1  0  0  0
 18 19  1  0  0  0
 19 20  2  0  0  0
 21 22  2  0  0  0
 22 23  1  0  0  0
 23 24  2  0  0  0
 24 25  1  0  0  0
 17 21  1  0  0  0
 17 25  2  0  0  0
 27 28  1  0  0  0
 28 29  2  0  0  0
 29 30  1  0  0  0
 26 30  2  0  0  0
 26 15  1  0  0  0
 15 27  2  0  0  0
 12 31  1  0  0  0
 31 32  2  0  0  0
 31 33  1  0  0  0
 34 35  1  0  0  0
 35 36  2  0  0  0
 36 37  1  0  0  0
 37 38  2  0  0  0
 38 33  1  0  0  0
 34 33  2  0  0  0
 35 39  1  0  0  0
 39 40  1  0  0  0
 40 41  1  0  0  0
 41 42  1  0  0  0
 40 43  2  0  0  0
  2 44  1  0  0  0
  2 45  1  0  0  0
  3 46  1  0  0  0
  5 47  1  0  0  0
  7 48  1  0  0  0
  9 49  1  0  0  0
 11 50  1  0  0  0
 12 51  1  0  0  0
 13 52  1  0  0  0
 13 53  1  0  0  0
 13 54  1  0  0  0
 14 55  1  0  0  0
 14 56  1  0  0  0
 16 57  1  0  0  0
 16 58  1  0  0  0
 18 59  1  0  0  0
 18 60  1  0  0  0
 19 61  1  0  0  0
 20 62  1  0  0  0
 20 63  1  0  0  0
 21 64  1  0  0  0
 22 65  1  0  0  0
 23 66  1  0  0  0
 24 67  1  0  0  0
 25 68  1  0  0  0
 26 69  1  0  0  0
 27 70  1  0  0  0
 28 71  1  0  0  0
 29 72  1  0  0  0
 30 73  1  0  0  0
 34 74  1  0  0  0
 36 75  1  0  0  0
 37 76  1  0  0  0
 38 77  1  0  0  0
 39 78  1  0  0  0
 41 79  1  0  0  0
 41 80  1  0  0  0
M  END
> <Clean Energy>
45.0764

$$$$
DHSL2009-227
  DSViewer          3D                             0

 90 94  0  0  0  0  0  0  0  0999 V2000
    0.3277   -4.6287    0.1491 O   0  0
   -0.3893   -5.8737    0.2799 C   0  0
    0.5644   -7.0657    0.0228 C   0  0  1  0  0  0
    1.5899   -7.1034    1.0489 O   0  0
    2.5803   -8.1539    0.8936 C   0  0  2  0  0  0
    3.3787   -8.0098   -0.3042 O   0  0
    1.8736   -9.5382    0.8879 C   0  0  2  0  0  0
    2.8590  -10.5968    0.8028 O   0  0
    0.8377   -9.5690   -0.2832 C   0  0  1  0  0  0
    0.2072  -10.8639   -0.2942 O   0  0
   -0.2072   -8.4219   -0.0839 C   0  0  1  0  0  0
   -0.9576   -8.7325    1.1031 N   0  0
    4.1709   -6.8139   -0.3761 C   0  0
    2.5475  -11.8123    1.5259 C   0  0
    3.6650  -12.7728    1.4002 C   0  0
   -0.3910  -11.3063   -1.5262 C   0  0
   -1.1074  -12.5986   -1.3650 C   0  0
   -0.5194   -3.4625    0.2034 C   0  0
    0.2571   -2.2388    0.1290 C   0  0
   -0.3355   -1.0296    0.1013 C   0  0
   -1.7573  -13.1601   -2.4889 C   0  0
   -2.3982  -14.4091   -2.4003 C   0  0
   -2.4073  -15.1095   -1.1802 C   0  0
   -1.7863  -14.5575   -0.0453 C   0  0
   -1.1532  -13.3047   -0.1354 C   0  0
    4.2999  -13.3098    2.5450 C   0  0
    4.1027  -13.1854    0.1200 C   0  0
    5.1567  -14.1079   -0.0116 C   0  0
    5.7760  -14.6378    1.1348 C   0  0
    5.3486  -14.2374    2.4133 C   0  0
   -2.0300   -9.5786    1.1597 C   0  0
   -2.7361   -9.7241    0.1326 O   0  0
   -2.2680  -10.3874    2.3156 C   0  0
   -3.2586  -11.4065    2.3060 C   0  0
   -3.4046  -12.3211    3.3782 C   0  0
   -2.5968  -12.1492    4.5207 C   0  0
   -1.6325  -11.1316    4.5716 C   0  0
   -1.4645  -10.2687    3.4783 C   0  0
   -4.2766  -13.3730    3.4070 N   0  0
   -4.8228  -14.0703    2.3680 C   0  0
   -5.7486  -15.1855    2.6461 C   0  0
   -5.1077  -16.6977    2.0132 Cl  0  0
   -4.5589  -13.8206    1.1681 O   0  0
    0.2880    0.2254    0.0415 C   0  0
    1.4149    2.8445   -0.0456 C   0  0
    2.2490    1.7146   -0.0279 C   0  0
    1.6953    0.4205    0.0137 C   0  0
   -0.5302    1.3862    0.0118 C   0  0
    0.0225    2.6775   -0.0304 C   0  0
   -0.7057   -5.9173    1.3220 H   0  0
   -1.1341   -5.8637   -0.5159 H   0  0
    1.1158   -6.9066   -0.9040 H   0  0
    3.2833   -8.0057    1.7134 H   0  0
    1.3778   -9.7609    1.8327 H   0  0
    1.3002   -9.4843   -1.2666 H   0  0
   -0.9662   -8.3498   -0.8629 H   0  0
   -0.7058   -8.3136    1.9870 H   0  0
    4.3997   -6.4685    0.6321 H   0  0
    5.0991   -7.0243   -0.9075 H   0  0
    3.6151   -6.0413   -0.9075 H   0  0
    2.4815  -11.5345    2.5779 H   0  0
    1.6872  -12.2553    1.0242 H   0  0
   -1.1433  -10.5572   -1.7732 H   0  0
    0.4401  -11.4892   -2.2073 H   0  0
   -1.1366   -3.4919   -0.6945 H   0  0
   -0.9881   -3.4717    1.1875 H   0  0
    1.3464   -2.2271    0.0918 H   0  0
   -1.4243   -1.0707    0.1301 H   0  0
   -1.7644  -12.6226   -3.4371 H   0  0
   -2.8876  -14.8339   -3.2767 H   0  0
   -2.8963  -16.0814   -1.1141 H   0  0
   -1.7956  -15.0987    0.9008 H   0  0
   -0.6939  -12.8772    0.7559 H   0  0
    3.9772  -13.0052    3.5405 H   0  0
    3.6228  -12.7882   -0.7745 H   0  0
    5.4936  -14.4123   -1.0026 H   0  0
    6.5872  -15.3587    1.0324 H   0  0
    5.8300  -14.6458    3.3018 H   0  0
   -3.9274  -11.4891    1.4493 H   0  0
   -2.7194  -12.8125    5.3769 H   0  0
   -1.0137  -11.0113    5.4609 H   0  0
   -0.6987   -9.4949    3.5329 H   0  0
   -4.5574  -13.6787    4.3277 H   0  0
   -5.7713  -15.2273    3.7351 H   0  0
   -6.6463  -14.9106    2.0924 H   0  0
    1.8459    3.8454   -0.0709 H   0  0
    3.3313    1.8426   -0.0466 H   0  0
    2.3638   -0.4403    0.0246 H   0  0
   -1.6152    1.2829    0.0216 H   0  0
   -0.6297    3.5506   -0.0513 H   0  0
  1  2  1  0  0  0
  3  2  1  0  0  0
  3  4  1  0  0  0
  5  4  1  0  0  0
  5  6  1  0  0  0
  7  5  1  0  0  0
  7  8  1  0  0  0
  7  9  1  0  0  0
  9 10  1  0  0  0
  9 11  1  0  0  0
 11  3  1  0  0  0
 11 12  1  0  0  0
  6 13  1  0  0  0
  8 14  1  0  0  0
 14 15  1  0  0  0
 10 16  1  0  0  0
 16 17  1  0  0  0
  1 18  1  0  0  0
 18 19  1  0  0  0
 19 20  2  0  0  0
 21 22  2  0  0  0
 22 23  1  0  0  0
 23 24  2  0  0  0
 24 25  1  0  0  0
 17 21  1  0  0  0
 17 25  2  0  0  0
 27 28  1  0  0  0
 28 29  2  0  0  0
 29 30  1  0  0  0
 26 30  2  0  0  0
 26 15  1  0  0  0
 15 27  2  0  0  0
 12 31  1  0  0  0
 31 32  2  0  0  0
 31 33  1  0  0  0
 34 35  1  0  0  0
 35 36  2  0  0  0
 36 37  1  0  0  0
 37 38  2  0  0  0
 38 33  1  0  0  0
 34 33  2  0  0  0
 35 39  1  0  0  0
 39 40  1  0  0  0
 40 41  1  0  0  0
 41 42  1  0  0  0
 40 43  2  0  0  0
 20 44  1  0  0  0
 45 46  1  0  0  0
 46 47  2  0  0  0
 48 49  1  0  0  0
 45 49  2  0  0  0
 47 44  1  0  0  0
 44 48  2  0  0  0
  2 50  1  0  0  0
  2 51  1  0  0  0
  3 52  1  0  0  0
  5 53  1  0  0  0
  7 54  1  0  0  0
  9 55  1  0  0  0
 11 56  1  0  0  0
 12 57  1  0  0  0
 13 58  1  0  0  0
 13 59  1  0  0  0
 13 60  1  0  0  0
 14 61  1  0  0  0
 14 62  1  0  0  0
 16 63  1  0  0  0
 16 64  1  0  0  0
 18 65  1  0  0  0
 18 66  1  0  0  0
 19 67  1  0  0  0
 20 68  1  0  0  0
 21 69  1  0  0  0
 22 70  1  0  0  0
 23 71  1  0  0  0
 24 72  1  0  0  0
 25 73  1  0  0  0
 26 74  1  0  0  0
 27 75  1  0  0  0
 28 76  1  0  0  0
 29 77  1  0  0  0
 30 78  1  0  0  0
 34 79  1  0  0  0
 36 80  1  0  0  0
 37 81  1  0  0  0
 38 82  1  0  0  0
 39 83  1  0  0  0
 41 84  1  0  0  0
 41 85  1  0  0  0
 45 86  1  0  0  0
 46 87  1  0  0  0
 47 88  1  0  0  0
 48 89  1  0  0  0
 49 90  1  0  0  0
M  END
> <Clean Energy>
114550

$$$$
DHSL2009-202
  DSViewer          3D                             0

 73 76  0  0  0  0  0  0  0  0999 V2000
    1.3433   -2.8024   -3.9837 O   0  0
    0.1439   -2.6819   -3.1943 C   0  0
    0.3123   -3.5354   -1.9108 C   0  0  1  0  0  0
    1.4137   -3.0115   -1.1301 O   0  0
    1.7385   -3.7676    0.0646 C   0  0  2  0  0  0
    2.1873   -5.1124   -0.2197 O   0  0
    0.5019   -3.8313    1.0100 C   0  0  2  0  0  0
    0.8773   -4.5515    2.2127 O   0  0
   -0.6952   -4.4826    0.2378 C   0  0  1  0  0  0
   -1.8618   -4.5734    1.0962 O   0  0
   -0.9903   -3.6465   -1.0554 C   0  0  1  0  0  0
   -1.4703   -2.3564   -0.6397 N   0  0
    3.3981   -5.2293   -0.9830 C   0  0
    0.2599   -4.1053    3.4434 C   0  0
    0.8360   -4.8181    4.6120 C   0  0
   -2.7937   -5.6377    0.7910 C   0  0
   -4.0275   -5.6305    1.6211 C   0  0
    1.2912   -2.1788   -5.2799 C   0  0
    2.5164   -2.4537   -6.0035 C   0  0
    2.7099   -2.0647   -7.2695 C   0  0
   -4.2094   -4.7696    2.7304 C   0  0
   -5.3924   -4.8163    3.4937 C   0  0
   -6.4096   -5.7279    3.1614 C   0  0
   -6.2472   -6.5837    2.0594 C   0  0
   -5.0658   -6.5372    1.2982 C   0  0
    1.4606   -4.1185    5.6757 C   0  0
    0.7406   -6.2272    4.6909 C   0  0
    1.2396   -6.9191    5.8104 C   0  0
    1.8394   -6.2116    6.8678 C   0  0
    1.9569   -4.8117    6.7966 C   0  0
   -2.7756   -2.0114   -0.4511 C   0  0
   -3.6913   -2.7590   -0.8745 O   0  0
   -3.1145   -0.8886    0.3515 C   0  0
   -2.4301    0.3582    0.3044 C   0  0
   -2.7775    1.3907    1.2004 C   0  0
   -3.7980    1.2085    2.1487 C   0  0
   -4.4976   -0.0076    2.1914 C   0  0
   -4.1655   -1.0384    1.2949 C   0  0
   -0.9410    0.7971   -1.0479 I   0  0
    0.0869   -1.6336   -2.9012 H   0  0
   -0.6510   -3.1237   -3.7952 H   0  0
    0.6075   -4.5462   -2.1923 H   0  0
    2.6073   -3.2581    0.4814 H   0  0
    0.1934   -2.8585    1.3929 H   0  0
   -0.4979   -5.5247   -0.0139 H   0  0
   -1.7942   -4.0528   -1.6693 H   0  0
   -0.8166   -1.6078   -0.4599 H   0  0
    4.2481   -5.3113   -0.3056 H   0  0
    3.3471   -6.1185   -1.6114 H   0  0
    3.5181   -4.3467   -1.6114 H   0  0
    0.5262   -3.0538    3.5497 H   0  0
   -0.7880   -4.3982    3.3778 H   0  0
   -3.1146   -5.4511   -0.2338 H   0  0
   -2.2657   -6.5589    1.0376 H   0  0
    0.4846   -2.6660   -5.8279 H   0  0
    1.2607   -1.1030   -5.1073 H   0  0
    3.3547   -2.9930   -5.5626 H   0  0
    1.8556   -1.9063   -7.9276 H   0  0
    3.7219   -1.9063   -7.6423 H   0  0
   -3.4271   -4.0605    3.0009 H   0  0
   -5.5209   -4.1455    4.3432 H   0  0
   -7.3218   -5.7709    3.7566 H   0  0
   -7.0387   -7.2848    1.7946 H   0  0
   -4.9536   -7.2111    0.4488 H   0  0
    1.5604   -3.0339    5.6313 H   0  0
    0.2767   -6.7870    3.8788 H   0  0
    1.1614   -8.0053    5.8587 H   0  0
    2.2124   -6.7471    7.7408 H   0  0
    2.4328   -4.2641    7.6101 H   0  0
   -2.2495    2.3435    1.1594 H   0  0
   -4.0459    2.0070    2.8481 H   0  0
   -5.2966   -0.1512    2.9188 H   0  0
   -4.7322   -1.9688    1.3319 H   0  0
  1  2  1  0  0  0
  3  2  1  0  0  0
  3  4  1  0  0  0
  5  4  1  0  0  0
  5  6  1  0  0  0
  7  5  1  0  0  0
  7  8  1  0  0  0
  7  9  1  0  0  0
  9 10  1  0  0  0
  9 11  1  0  0  0
 11  3  1  0  0  0
 11 12  1  0  0  0
  6 13  1  0  0  0
  8 14  1  0  0  0
 14 15  1  0  0  0
 10 16  1  0  0  0
 16 17  1  0  0  0
  1 18  1  0  0  0
 18 19  1  0  0  0
 19 20  2  0  0  0
 21 22  2  0  0  0
 22 23  1  0  0  0
 23 24  2  0  0  0
 24 25  1  0  0  0
 17 21  1  0  0  0
 17 25  2  0  0  0
 27 28  1  0  0  0
 28 29  2  0  0  0
 29 30  1  0  0  0
 26 30  2  0  0  0
 26 15  1  0  0  0
 15 27  2  0  0  0
 12 31  1  0  0  0
 31 33  1  0  0  0
 34 35  1  0  0  0
 35 36  2  0  0  0
 36 37  1  0  0  0
 37 38  2  0  0  0
 38 33  1  0  0  0
 34 33  2  0  0  0
 34 39  1  0  0  0
 31 32  2  0  0  0
  2 40  1  0  0  0
  2 41  1  0  0  0
  3 42  1  0  0  0
  5 43  1  0  0  0
  7 44  1  0  0  0
  9 45  1  0  0  0
 11 46  1  0  0  0
 12 47  1  0  0  0
 13 48  1  0  0  0
 13 49  1  0  0  0
 13 50  1  0  0  0
 14 51  1  0  0  0
 14 52  1  0  0  0
 16 53  1  0  0  0
 16 54  1  0  0  0
 18 55  1  0  0  0
 18 56  1  0  0  0
 19 57  1  0  0  0
 20 58  1  0  0  0
 20 59  1  0  0  0
 21 60  1  0  0  0
 22 61  1  0  0  0
 23 62  1  0  0  0
 24 63  1  0  0  0
 25 64  1  0  0  0
 26 65  1  0  0  0
 27 66  1  0  0  0
 28 67  1  0  0  0
 29 68  1  0  0  0
 30 69  1  0  0  0
 35 70  1  0  0  0
 36 71  1  0  0  0
 37 72  1  0  0  0
 38 73  1  0  0  0
M  END
> <Clean Energy>
-0.471808

$$$$
DHSL2009-203
  DSViewer          3D                             0

 83 87  0  0  0  0  0  0  0  0999 V2000
    0.2216   -4.8039    0.3128 O   0  0
   -0.4960   -6.0472    0.4835 C   0  0
    0.4294   -7.2448    0.1438 C   0  0  1  0  0  0
    1.5561   -7.2623    1.0551 O   0  0
    2.5349   -8.3058    0.8152 C   0  0  2  0  0  0
    3.2107   -8.1921   -0.4612 O   0  0
    1.8448   -9.6963    0.9066 C   0  0  2  0  0  0
    2.8589  -10.7108    0.7287 O   0  0
    0.7085   -9.7570   -0.1690 C   0  0  1  0  0  0
    0.0876  -11.0654   -0.2073 O   0  0
   -0.3259   -8.6171    0.1133 C   0  0  1  0  0  0
   -1.0061   -8.9312    1.3463 N   0  0
    4.0176   -7.0212   -0.6487 C   0  0
    2.6814  -11.9372    1.4722 C   0  0
    3.8562  -12.8190    1.2605 C   0  0
   -0.5422  -11.4323   -1.4612 C   0  0
   -1.2643  -12.7314   -1.4255 C   0  0
   -0.5982   -3.6175    0.4134 C   0  0
    0.1943   -2.4079    0.2517 C   0  0
   -0.3646   -1.1800    0.2480 C   0  0
   -2.0011  -13.1452   -2.5638 C   0  0
   -2.7168  -14.3581   -2.5597 C   0  0
   -2.7060  -15.1759   -1.4174 C   0  0
   -1.9668  -14.7885   -0.2864 C   0  0
   -1.2476  -13.5792   -0.2913 C   0  0
    4.6489  -13.2688    2.3451 C   0  0
    4.1996  -13.2360   -0.0471 C   0  0
    5.3097  -14.0733   -0.2658 C   0  0
    6.0899  -14.5081    0.8208 C   0  0
    5.7578  -14.1082    2.1273 C   0  0
    0.2819    0.0615    0.1216 C   0  0
   -0.5096    1.2412    0.0606 C   0  0
    0.0751    2.5160   -0.0536 C   0  0
    1.4711    2.6465   -0.1114 C   0  0
    2.2770    1.4979   -0.0547 C   0  0
    1.6917    0.2228    0.0608 C   0  0
   -2.1932   -9.6011    1.4562 C   0  0
   -2.9027   -9.7993    0.4399 O   0  0
   -2.5822  -10.1915    2.6894 C   0  0
   -2.5068   -9.5167    3.9388 C   0  0
   -2.8507  -10.1863    5.1320 C   0  0
   -3.2858  -11.5217    5.1032 C   0  0
   -3.3771  -12.1980    3.8761 C   0  0
   -3.0350  -11.5380    2.6804 C   0  0
   -1.9388   -7.5465    4.1266 I   0  0
   -0.7354   -6.1002    1.5456 H   0  0
   -1.2971   -6.0233   -0.2552 H   0  0
    0.8754   -7.0900   -0.8387 H   0  0
    3.3134   -8.1230    1.5559 H   0  0
    1.4302   -9.9263    1.8880 H   0  0
    1.1064   -9.6744   -1.1804 H   0  0
   -1.1412   -8.5569   -0.6076 H   0  0
   -0.6069   -8.6511    2.2308 H   0  0
    4.2983   -6.6140    0.3227 H   0  0
    4.9167   -7.2850   -1.2056 H   0  0
    3.4511   -6.2749   -1.2056 H   0  0
    2.6729  -11.6580    2.5258 H   0  0
    1.8183  -12.4385    1.0343 H   0  0
   -1.2992  -10.6679   -1.6364 H   0  0
    0.2779  -11.5592   -2.1678 H   0  0
   -1.2873   -3.6508   -0.4305 H   0  0
   -0.9848   -3.5998    1.4324 H   0  0
    1.2768   -2.4225    0.1250 H   0  0
   -1.4489   -1.1923    0.3584 H   0  0
   -2.0177  -12.5205   -3.4569 H   0  0
   -3.2795  -14.6642   -3.4416 H   0  0
   -3.2699  -16.1087   -1.4086 H   0  0
   -1.9513  -15.4274    0.5966 H   0  0
   -0.6727  -13.2969    0.5907 H   0  0
    4.4019  -12.9647    3.3623 H   0  0
    3.6011  -12.9080   -0.8970 H   0  0
    5.5656  -14.3856   -1.2783 H   0  0
    6.9510  -15.1543    0.6505 H   0  0
    6.3592  -14.4484    2.9702 H   0  0
   -1.5962    1.1661    0.1027 H   0  0
   -0.5547    3.4045   -0.0975 H   0  0
    1.9261    3.6330   -0.1998 H   0  0
    3.3616    1.5965   -0.1005 H   0  0
    2.3397   -0.6526    0.1038 H   0  0
   -2.7793   -9.6659    6.0871 H   0  0
   -3.5516  -12.0312    6.0294 H   0  0
   -3.7133  -13.2345    3.8517 H   0  0
   -3.1218  -12.0759    1.7364 H   0  0
  1  2  1  0  0  0
  3  2  1  0  0  0
  3  4  1  0  0  0
  5  4  1  0  0  0
  5  6  1  0  0  0
  7  5  1  0  0  0
  7  8  1  0  0  0
  7  9  1  0  0  0
  9 10  1  0  0  0
  9 11  1  0  0  0
 11  3  1  0  0  0
 11 12  1  0  0  0
  6 13  1  0  0  0
  8 14  1  0  0  0
 14 15  1  0  0  0
 10 16  1  0  0  0
 16 17  1  0  0  0
  1 18  1  0  0  0
 18 19  1  0  0  0
 19 20  2  0  0  0
 21 22  2  0  0  0
 22 23  1  0  0  0
 23 24  2  0  0  0
 24 25  1  0  0  0
 17 21  1  0  0  0
 17 25  2  0  0  0
 27 28  1  0  0  0
 28 29  2  0  0  0
 29 30  1  0  0  0
 26 30  2  0  0  0
 26 15  1  0  0  0
 15 27  2  0  0  0
 20 31  1  0  0  0
 32 33  1  0  0  0
 33 34  2  0  0  0
 34 35  1  0  0  0
 35 36  2  0  0  0
 36 31  1  0  0  0
 32 31  2  0  0  0
 12 37  1  0  0  0
 37 38  2  0  0  0
 37 39  1  0  0  0
 40 41  1  0  0  0
 41 42  2  0  0  0
 42 43  1  0  0  0
 43 44  2  0  0  0
 44 39  1  0  0  0
 40 39  2  0  0  0
 40 45  1  0  0  0
  2 46  1  0  0  0
  2 47  1  0  0  0
  3 48  1  0  0  0
  5 49  1  0  0  0
  7 50  1  0  0  0
  9 51  1  0  0  0
 11 52  1  0  0  0
 12 53  1  0  0  0
 13 54  1  0  0  0
 13 55  1  0  0  0
 13 56  1  0  0  0
 14 57  1  0  0  0
 14 58  1  0  0  0
 16 59  1  0  0  0
 16 60  1  0  0  0
 18 61  1  0  0  0
 18 62  1  0  0  0
 19 63  1  0  0  0
 20 64  1  0  0  0
 21 65  1  0  0  0
 22 66  1  0  0  0
 23 67  1  0  0  0
 24 68  1  0  0  0
 25 69  1  0  0  0
 26 70  1  0  0  0
 27 71  1  0  0  0
 28 72  1  0  0  0
 29 73  1  0  0  0
 30 74  1  0  0  0
 32 75  1  0  0  0
 33 76  1  0  0  0
 34 77  1  0  0  0
 35 78  1  0  0  0
 36 79  1  0  0  0
 41 80  1  0  0  0
 42 81  1  0  0  0
 43 82  1  0  0  0
 44 83  1  0  0  0
M  END
> <Clean Energy>
161032

$$$$
DHSL2009-204
  DSViewer          3D                             0

 73 77  0  0  0  0  0  0  0  0999 V2000
    1.2455   -0.7621   -2.9833 O   0  0
    1.6630   -2.0949   -3.3508 C   0  0
    1.6354   -3.1008   -2.1608 C   0  0  1  0  0  0
    2.7868   -2.9305   -1.3078 O   0  0
    2.9716   -3.9934   -0.3367 C   0  0  2  0  0  0
    3.2241   -5.2896   -0.9306 O   0  0
    1.7322   -4.1250    0.5972 C   0  0  2  0  0  0
    2.0096   -5.2134    1.5100 O   0  0
    0.4290   -4.3006   -0.2601 C   0  0  1  0  0  0
   -0.7384   -4.4801    0.5819 O   0  0
    0.3250   -3.1211   -1.2963 C   0  0  1  0  0  0
   -0.0451   -1.8011   -0.8173 N   0  0
    4.4258   -5.4117   -1.7057 C   0  0
    1.2011   -5.3258    2.6985 C   0  0
    1.9717   -6.0742    3.7215 C   0  0
   -2.0419   -4.6500   -0.0207 C   0  0
   -2.1882   -5.9199   -0.7751 C   0  0
   -2.4396   -7.1332   -0.0921 C   0  0
   -2.6041   -8.3354   -0.8072 C   0  0
   -2.5061   -8.3414   -2.2102 C   0  0
   -2.2385   -7.1448   -2.8985 C   0  0
   -2.0899   -5.9411   -2.1873 C   0  0
    2.9840   -5.4220    4.4657 C   0  0
    1.7236   -7.4454    3.9699 C   0  0
    2.4705   -8.1459    4.9360 C   0  0
    3.4713   -7.4853    5.6700 C   0  0
    3.7242   -6.1220    5.4377 C   0  0
   -0.4815   -1.3110    0.3846 C   0  0
   -0.4750   -2.0546    1.3907 O   0  0
   -0.9825    0.0291    0.5623 C   0  0
   -1.5332    0.8619   -0.4687 C   0  0
   -2.0443    2.1447   -0.1357 C   0  0
   -2.0292    2.6227    1.1815 C   0  0
   -1.4714    1.8338    2.1910 C   0  0
   -0.9560    0.5650    1.8826 C   0  0
   -1.6029    0.5098   -1.9542 C   0  0
   -0.4522    1.0267   -2.9323 C   0  0
    0.2341   -0.1412   -3.8120 C   0  0
    0.9164   -2.4250   -4.0731 H   0  0
    2.7032   -1.9804   -3.6558 H   0  0
    1.7474   -4.0873   -2.6108 H   0  0
    3.8972   -3.7054    0.1618 H   0  0
    1.5714   -3.2730    1.2578 H   0  0
    0.4032   -5.2498   -0.7954 H   0  0
   -0.5923   -3.2623   -1.8680 H   0  0
    0.0157   -1.0408   -1.4794 H   0  0
    5.2821   -5.4986   -1.0370 H   0  0
    4.3640   -6.2999   -2.3343 H   0  0
    4.5439   -4.5291   -2.3343 H   0  0
    1.0583   -4.3122    3.0731 H   0  0
    0.3376   -5.9341    2.4294 H   0  0
   -2.7410   -4.7060    0.8136 H   0  0
   -2.1292   -3.8464   -0.7520 H   0  0
   -2.5072   -7.1419    0.9957 H   0  0
   -2.8078   -9.2636   -0.2733 H   0  0
   -2.6373   -9.2716   -2.7631 H   0  0
   -2.1461   -7.1503   -3.9846 H   0  0
   -1.8972   -5.0183   -2.7344 H   0  0
    3.1962   -4.3678    4.2881 H   0  0
    0.9479   -7.9683    3.4104 H   0  0
    2.2735   -9.2027    5.1163 H   0  0
    4.0496   -8.0286    6.4172 H   0  0
    4.4949   -5.6074    6.0116 H   0  0
   -2.4611    2.7823   -0.9153 H   0  0
   -2.4481    3.6006    1.4189 H   0  0
   -1.4384    2.2066    3.2148 H   0  0
   -0.5223   -0.0217    2.6924 H   0  0
   -1.5302   -0.5777   -1.9653 H   0  0
   -2.5165    0.9985   -2.2927 H   0  0
   -0.9474    1.6878   -3.6435 H   0  0
    0.3322    1.4147   -2.2825 H   0  0
   -0.5029   -0.9211   -4.0036 H   0  0
    0.7768    0.3116   -4.6418 H   0  0
  1  2  1  0  0  0
  3  2  1  0  0  0
  3  4  1  0  0  0
  5  4  1  0  0  0
  5  6  1  0  0  0
  7  5  1  0  0  0
  7  8  1  0  0  0
  7  9  1  0  0  0
  9 10  1  0  0  0
  9 11  1  0  0  0
 11  3  1  0  0  0
 11 12  1  0  0  0
  6 13  1  0  0  0
  8 14  1  0  0  0
 14 15  1  0  0  0
 10 16  1  0  0  0
 16 17  1  0  0  0
 18 19  2  0  0  0
 19 20  1  0  0  0
 20 21  2  0  0  0
 21 22  1  0  0  0
 17 18  1  0  0  0
 17 22  2  0  0  0
 24 25  1  0  0  0
 25 26  2  0  0  0
 26 27  1  0  0  0
 23 27  2  0  0  0
 23 15  1  0  0  0
 15 24  2  0  0  0
 12 28  1  0  0  0
 28 29  2  0  0  0
 28 30  1  0  0  0
 31 32  1  0  0  0
 32 33  2  0  0  0
 33 34  1  0  0  0
 34 35  2  0  0  0
 35 30  1  0  0  0
 31 30  2  0  0  0
 31 36  1  0  0  0
 36 37  1  0  0  0
 37 38  1  0  0  0
 38  1  1  0  0  0
  2 39  1  0  0  0
  2 40  1  0  0  0
  3 41  1  0  0  0
  5 42  1  0  0  0
  7 43  1  0  0  0
  9 44  1  0  0  0
 11 45  1  0  0  0
 12 46  1  0  0  0
 13 47  1  0  0  0
 13 48  1  0  0  0
 13 49  1  0  0  0
 14 50  1  0  0  0
 14 51  1  0  0  0
 16 52  1  0  0  0
 16 53  1  0  0  0
 18 54  1  0  0  0
 19 55  1  0  0  0
 20 56  1  0  0  0
 21 57  1  0  0  0
 22 58  1  0  0  0
 23 59  1  0  0  0
 24 60  1  0  0  0
 25 61  1  0  0  0
 26 62  1  0  0  0
 27 63  1  0  0  0
 32 64  1  0  0  0
 33 65  1  0  0  0
 34 66  1  0  0  0
 35 67  1  0  0  0
 36 68  1  0  0  0
 36 69  1  0  0  0
 37 70  1  0  0  0
 37 71  1  0  0  0
 38 72  1  0  0  0
 38 73  1  0  0  0
M  END
> <Clean Energy>
2.59331

$$$$
DHSL2009-208
  DSViewer          3D                             0

 80 83  0  0  0  0  0  0  0  0999 V2000
    1.0843   -0.2509    5.0160 O   0  0
   -0.0261   -0.7372    4.2328 C   0  0
    0.4558   -1.4403    2.9336 C   0  0  1  0  0  0
    1.1351   -2.6723    3.2833 O   0  0
    1.6757   -3.4296    2.1682 C   0  0  2  0  0  0
    2.7710   -2.7497    1.5125 O   0  0
    0.5532   -3.7847    1.1471 C   0  0  2  0  0  0
    1.1164   -4.5257    0.0308 O   0  0
   -0.1667   -2.4757    0.6920 C   0  0  1  0  0  0
   -1.2289   -2.7790   -0.2411 O   0  0
   -0.7212   -1.7199    1.9416 C   0  0  1  0  0  0
   -1.7335   -2.4998    2.6076 N   0  0
    3.9129   -2.4982    2.3525 C   0  0
    0.2426   -5.5250   -0.5470 C   0  0
    0.8514   -6.2162   -1.7089 C   0  0
   -1.5359   -1.7656   -1.2245 C   0  0
   -2.6218   -2.1584   -2.1606 C   0  0
    0.6771    0.5144    6.1736 C   0  0
    1.8176    0.9141    6.9718 C   0  0
    1.6945    1.6959    8.0524 C   0  0
   -3.2139   -3.4437   -2.1464 C   0  0
   -4.2171   -3.7851   -3.0693 C   0  0
   -4.6536   -2.8433   -4.0173 C   0  0
   -4.0907   -1.5556   -4.0342 C   0  0
   -3.0810   -1.2172   -3.1129 C   0  0
    0.9803   -7.6259   -1.7231 C   0  0
    1.2561   -5.4861   -2.8521 C   0  0
    1.7573   -6.1536   -3.9870 C   0  0
    1.8643   -7.5562   -3.9905 C   0  0
    1.4772   -8.2921   -2.8573 C   0  0
   -3.0811   -2.5446    2.4034 C   0  0
   -3.6757   -3.4248    3.0662 O   0  0
   -3.8578   -1.7498    1.5223 C   0  0
   -4.7695   -2.3690    0.6318 C   0  0
   -5.5754   -1.6100   -0.2508 C   0  0
   -5.3982   -0.2090   -0.2796 C   0  0
   -4.5208    0.4258    0.6168 C   0  0
   -3.7782   -0.3399    1.5333 C   0  0
   -6.5147   -2.1364   -1.0986 N   0  0
   -7.2106   -3.3115   -1.0062 C   0  0
   -8.1692   -3.6644   -2.0714 C   0  0
   -7.7048   -5.5541   -2.9181 I   0  0
   -7.1103   -4.0912   -0.0304 O   0  0
   -0.5036   -1.4910    4.8588 H   0  0
   -0.5770    0.1566    3.9400 H   0  0
    1.2024   -0.8240    2.4328 H   0  0
    2.1359   -4.3066    2.6234 H   0  0
   -0.1755   -4.4810    1.5623 H   0  0
    0.5026   -1.8366    0.1161 H   0  0
   -1.2425   -0.8095    1.6457 H   0  0
   -1.4483   -3.1251    3.3477 H   0  0
    3.6155   -2.5637    3.3991 H   0  0
    4.6853   -3.2394    2.1472 H   0  0
    4.3025   -1.5011    2.1472 H   0  0
    0.1079   -6.2803    0.2272 H   0  0
   -0.6185   -4.9766   -0.9291 H   0  0
   -1.9115   -0.9151   -0.6555 H   0  0
   -0.6323   -1.6629   -1.8255 H   0  0
    0.2315    1.4332    5.7924 H   0  0
    0.0880   -0.1599    6.7952 H   0  0
    2.8379    0.6056    6.7438 H   0  0
    2.5823    2.0140    8.5990 H   0  0
    0.7065    2.0140    8.3853 H   0  0
   -2.8920   -4.1827   -1.4127 H   0  0
   -4.6573   -4.7820   -3.0498 H   0  0
   -5.4268   -3.1110   -4.7375 H   0  0
   -4.4366   -0.8203   -4.7607 H   0  0
   -2.6504   -0.2162   -3.1372 H   0  0
    0.6925   -8.2074   -0.8472 H   0  0
    1.1808   -4.3987   -2.8586 H   0  0
    2.0631   -5.5835   -4.8643 H   0  0
    2.2469   -8.0726   -4.8709 H   0  0
    1.5624   -9.3788   -2.8580 H   0  0
   -4.8529   -3.4558    0.6256 H   0  0
   -5.9472    0.3915   -1.0049 H   0  0
   -4.4164    1.5107    0.6011 H   0  0
   -3.1366    0.1628    2.2571 H   0  0
   -6.7251   -1.5755   -1.9117 H   0  0
   -9.0909   -3.6884   -1.4900 H   0  0
   -7.9841   -2.8448   -2.7657 H   0  0
  1  2  1  0  0  0
  3  2  1  0  0  0
  3  4  1  0  0  0
  5  4  1  0  0  0
  5  6  1  0  0  0
  7  5  1  0  0  0
  7  8  1  0  0  0
  7  9  1  0  0  0
  9 10  1  0  0  0
  9 11  1  0  0  0
 11  3  1  0  0  0
 11 12  1  0  0  0
  6 13  1  0  0  0
  8 14  1  0  0  0
 14 15  1  0  0  0
 10 16  1  0  0  0
 16 17  1  0  0  0
  1 18  1  0  0  0
 18 19  1  0  0  0
 19 20  2  0  0  0
 21 22  2  0  0  0
 22 23  1  0  0  0
 23 24  2  0  0  0
 24 25  1  0  0  0
 17 21  1  0  0  0
 17 25  2  0  0  0
 27 28  1  0  0  0
 28 29  2  0  0  0
 29 30  1  0  0  0
 26 30  2  0  0  0
 26 15  1  0  0  0
 15 27  2  0  0  0
 12 31  1  0  0  0
 31 32  2  0  0  0
 31 33  1  0  0  0
 34 35  1  0  0  0
 35 36  2  0  0  0
 36 37  1  0  0  0
 37 38  2  0  0  0
 38 33  1  0  0  0
 34 33  2  0  0  0
 35 39  1  0  0  0
 39 40  1  0  0  0
 40 41  1  0  0  0
 41 42  1  0  0  0
 40 43  2  0  0  0
  2 44  1  0  0  0
  2 45  1  0  0  0
  3 46  1  0  0  0
  5 47  1  0  0  0
  7 48  1  0  0  0
  9 49  1  0  0  0
 11 50  1  0  0  0
 12 51  1  0  0  0
 13 52  1  0  0  0
 13 53  1  0  0  0
 13 54  1  0  0  0
 14 55  1  0  0  0
 14 56  1  0  0  0
 16 57  1  0  0  0
 16 58  1  0  0  0
 18 59  1  0  0  0
 18 60  1  0  0  0
 19 61  1  0  0  0
 20 62  1  0  0  0
 20 63  1  0  0  0
 21 64  1  0  0  0
 22 65  1  0  0  0
 23 66  1  0  0  0
 24 67  1  0  0  0
 25 68  1  0  0  0
 26 69  1  0  0  0
 27 70  1  0  0  0
 28 71  1  0  0  0
 29 72  1  0  0  0
 30 73  1  0  0  0
 34 74  1  0  0  0
 36 75  1  0  0  0
 37 76  1  0  0  0
 38 77  1  0  0  0
 39 78  1  0  0  0
 41 79  1  0  0  0
 41 80  1  0  0  0
M  END
> <Clean Energy>
34.025

$$$$
DHSL2009-209
  DSViewer          3D                             0

 90 94  0  0  0  0  0  0  0  0999 V2000
    0.2073   -4.5657    0.1389 O   0  0
   -0.4453   -5.8439    0.2634 C   0  0
    0.5703   -7.0060    0.0754 C   0  0  1  0  0  0
    1.4847   -7.0372    1.2018 O   0  0
    2.5155   -8.0592    1.1469 C   0  0  2  0  0  0
    3.4763   -7.8222    0.0928 O   0  0
    1.8818   -9.4774    1.0207 C   0  0  2  0  0  0
    2.9212  -10.4960    0.9558 O   0  0
    0.9241   -9.5106   -0.2109 C   0  0  1  0  0  0
    0.2814  -10.8013   -0.3121 O   0  0
   -0.1497   -8.3842   -0.0829 C   0  0  1  0  0  0
   -1.0035   -8.5893    1.0617 N   0  0
    4.1971   -6.5794    0.2049 C   0  0
    2.5815  -11.7501    1.6011 C   0  0
    3.6474  -12.7799    1.5190 C   0  0
   -0.0556  -11.2587   -1.6399 C   0  0
   -0.6789  -12.6094   -1.6504 C   0  0
   -0.6890   -3.4313    0.0954 C   0  0
    0.0781   -2.1975    0.0660 C   0  0
   -0.4885   -0.9759    0.0373 C   0  0
   -1.1649  -13.1288   -2.8738 C   0  0
   -1.7770  -14.3948   -2.9317 C   0  0
   -1.9070  -15.1662   -1.7633 C   0  0
   -1.4029  -14.6818   -0.5437 C   0  0
   -0.8050  -13.4089   -0.4863 C   0  0
    4.1709  -13.3817    2.6901 C   0  0
    4.1051  -13.2380    0.2611 C   0  0
    5.0369  -14.2913    0.1765 C   0  0
    5.5270  -14.8962    1.3480 C   0  0
    5.0986  -14.4366    2.6055 C   0  0
   -2.1900   -9.2507    1.1692 C   0  0
   -2.6400   -9.3253    2.3356 O   0  0
   -2.9268   -9.8790    0.1387 C   0  0
   -3.3588  -11.2170    0.3047 C   0  0
   -4.0691  -11.8884   -0.7199 C   0  0
   -4.3415  -11.1986   -1.9189 C   0  0
   -3.9645   -9.8553   -2.0752 C   0  0
   -3.2737   -9.1945   -1.0454 C   0  0
   -4.5025  -13.1812   -0.6617 N   0  0
   -4.8146  -13.9375    0.4265 C   0  0
   -5.2860  -15.3184    0.2262 C   0  0
   -4.2204  -16.6633    1.4728 I   0  0
   -4.7758  -13.4964    1.5982 O   0  0
    0.1738    0.2666    0.0110 C   0  0
    1.3962    2.8453   -0.0160 C   0  0
    2.1916    1.6893   -0.0126 C   0  0
    1.5878    0.4180   -0.0014 C   0  0
   -0.6025    1.4568   -0.0013 C   0  0
   -0.0028    2.7310   -0.0137 C   0  0
   -0.8061   -5.8793    1.2913 H   0  0
   -1.1534   -5.8827   -0.5644 H   0  0
    1.1922   -6.8187   -0.7999 H   0  0
    3.0894   -7.9295    2.0644 H   0  0
    1.3324   -9.7587    1.9191 H   0  0
    1.4847   -9.4138   -1.1407 H   0  0
   -0.8304   -8.4180   -0.9336 H   0  0
   -0.7188   -8.1990    1.9486 H   0  0
    4.3388   -6.3352    1.2578 H   0  0
    5.1688   -6.6780   -0.2791 H   0  0
    3.6291   -5.7850   -0.2791 H   0  0
    2.4705  -11.5098    2.6585 H   0  0
    1.7339  -12.1432    1.0397 H   0  0
   -0.8133  -10.5641   -2.0026 H   0  0
    0.8951  -11.3512   -2.1650 H   0  0
   -1.2233   -3.4924   -0.8527 H   0  0
   -1.2428   -3.4353    1.0343 H   0  0
    1.1681   -2.1876    0.0655 H   0  0
   -1.5783   -0.9943    0.0352 H   0  0
   -1.0661  -12.5433   -3.7878 H   0  0
   -2.1502  -14.7780   -3.8815 H   0  0
   -2.3980  -16.1385   -1.8030 H   0  0
   -1.4757  -15.2923    0.3563 H   0  0
   -0.4356  -13.0384    0.4699 H   0  0
    3.8550  -13.0278    3.6715 H   0  0
    3.7356  -12.7740   -0.6534 H   0  0
    5.3796  -14.6391   -0.7980 H   0  0
    6.2376  -15.7200    1.2815 H   0  0
    5.4856  -14.8977    3.5142 H   0  0
   -3.1409  -11.7389    1.2366 H   0  0
   -4.8501  -11.7106   -2.7358 H   0  0
   -4.2083   -9.3255   -2.9960 H   0  0
   -3.0053   -8.1450   -1.1659 H   0  0
   -4.6075  -13.6453   -1.5525 H   0  0
   -6.3260  -15.2068    0.5329 H   0  0
   -5.0396  -15.4486   -0.8276 H   0  0
    1.8641    3.8298   -0.0205 H   0  0
    3.2779    1.7788   -0.0186 H   0  0
    2.2269   -0.4650   -0.0023 H   0  0
   -1.6905    1.3904   -0.0012 H   0  0
   -0.6213    3.6284   -0.0215 H   0  0
  1  2  1  0  0  0
  3  2  1  0  0  0
  3  4  1  0  0  0
  5  4  1  0  0  0
  5  6  1  0  0  0
  7  5  1  0  0  0
  7  8  1  0  0  0
  7  9  1  0  0  0
  9 10  1  0  0  0
  9 11  1  0  0  0
 11  3  1  0  0  0
 11 12  1  0  0  0
  6 13  1  0  0  0
  8 14  1  0  0  0
 14 15  1  0  0  0
 10 16  1  0  0  0
 16 17  1  0  0  0
  1 18  1  0  0  0
 18 19  1  0  0  0
 19 20  2  0  0  0
 21 22  2  0  0  0
 22 23  1  0  0  0
 23 24  2  0  0  0
 24 25  1  0  0  0
 17 21  1  0  0  0
 17 25  2  0  0  0
 27 28  1  0  0  0
 28 29  2  0  0  0
 29 30  1  0  0  0
 26 30  2  0  0  0
 26 15  1  0  0  0
 15 27  2  0  0  0
 12 31  1  0  0  0
 31 32  2  0  0  0
 31 33  1  0  0  0
 34 35  1  0  0  0
 35 36  2  0  0  0
 36 37  1  0  0  0
 37 38  2  0  0  0
 38 33  1  0  0  0
 34 33  2  0  0  0
 35 39  1  0  0  0
 39 40  1  0  0  0
 40 41  1  0  0  0
 41 42  1  0  0  0
 40 43  2  0  0  0
 20 44  1  0  0  0
 45 46  1  0  0  0
 46 47  2  0  0  0
 48 49  1  0  0  0
 45 49  2  0  0  0
 47 44  1  0  0  0
 44 48  2  0  0  0
  2 50  1  0  0  0
  2 51  1  0  0  0
  3 52  1  0  0  0
  5 53  1  0  0  0
  7 54  1  0  0  0
  9 55  1  0  0  0
 11 56  1  0  0  0
 12 57  1  0  0  0
 13 58  1  0  0  0
 13 59  1  0  0  0
 13 60  1  0  0  0
 14 61  1  0  0  0
 14 62  1  0  0  0
 16 63  1  0  0  0
 16 64  1  0  0  0
 18 65  1  0  0  0
 18 66  1  0  0  0
 19 67  1  0  0  0
 20 68  1  0  0  0
 21 69  1  0  0  0
 22 70  1  0  0  0
 23 71  1  0  0  0
 24 72  1  0  0  0
 25 73  1  0  0  0
 26 74  1  0  0  0
 27 75  1  0  0  0
 28 76  1  0  0  0
 29 77  1  0  0  0
 30 78  1  0  0  0
 34 79  1  0  0  0
 36 80  1  0  0  0
 37 81  1  0  0  0
 38 82  1  0  0  0
 39 83  1  0  0  0
 41 84  1  0  0  0
 41 85  1  0  0  0
 45 86  1  0  0  0
 46 87  1  0  0  0
 47 88  1  0  0  0
 48 89  1  0  0  0
 49 90  1  0  0  0
M  END
> <Clean Energy>
70960.1

$$$$
DHSL2009-235
  DSViewer          3D                             0

 73 76  0  0  0  0  0  0  0  0999 V2000
    1.0113   -0.3027    4.9177 O   0  0
   -0.0974   -0.7620    4.1163 C   0  0
    0.3830   -1.4864    2.8253 C   0  0  1  0  0  0
    1.0373   -2.7323    3.1689 O   0  0
    1.5731   -3.4837    2.0452 C   0  0  2  0  0  0
    2.6405   -2.7791    1.3703 O   0  0
    0.4501   -3.8609    1.0320 C   0  0  2  0  0  0
    1.0184   -4.5745   -0.1067 O   0  0
   -0.3064   -2.5705    0.6009 C   0  0  1  0  0  0
   -1.4458   -2.9554   -0.1962 O   0  0
   -0.7964   -1.7580    1.8394 C   0  0  1  0  0  0
   -1.8116   -2.4901    2.5452 N   0  0
    3.7922   -2.4892    2.1844 C   0  0
    0.1622   -5.5597   -0.7382 C   0  0
    0.8103   -6.2834   -1.8637 C   0  0
   -1.8075   -2.0837   -1.2846 C   0  0
   -3.0323   -2.5271   -1.9990 C   0  0
    0.6037    0.5131    6.0417 C   0  0
    1.7435    0.8910    6.8503 C   0  0
    1.6214    1.6494    7.9471 C   0  0
   -3.6612   -3.7725   -1.7530 C   0  0
   -4.8379   -4.1295   -2.4365 C   0  0
   -5.3954   -3.2570   -3.3860 C   0  0
   -4.7704   -2.0276   -3.6573 C   0  0
   -3.6011   -1.6626   -2.9650 C   0  0
    0.9328   -7.6947   -1.8426 C   0  0
    1.2517   -5.5884   -3.0158 C   0  0
    1.7689   -6.2888   -4.1255 C   0  0
    1.8566   -7.6927   -4.0964 C   0  0
    1.4460   -8.3945   -2.9505 C   0  0
   -3.1624   -2.3443    2.5136 C   0  0
   -3.7981   -3.1573    3.2240 O   0  0
   -3.8983   -1.4287    1.7215 C   0  0
   -3.6975   -0.0292    1.7919 C   0  0
   -4.4269    0.8394    0.9581 C   0  0
   -5.3738    0.3239    0.0546 C   0  0
   -5.6181   -1.0597    0.0135 C   0  0
   -4.8854   -1.9295    0.8406 C   0  0
   -0.6060   -1.4986    4.7383 H   0  0
   -0.6174    0.1461    3.8113 H   0  0
    1.1463   -0.8841    2.3327 H   0  0
    2.0495   -4.3524    2.4998 H   0  0
   -0.2542   -4.5795    1.4512 H   0  0
    0.3254   -1.9459   -0.0307 H   0  0
   -1.2713   -0.8338    1.5104 H   0  0
   -1.5279   -3.2322    3.1687 H   0  0
    3.5194   -2.5578    3.2375 H   0  0
    4.5818   -3.2082    1.9660 H   0  0
    4.1474   -1.4820    1.9660 H   0  0
   -0.0368   -6.3053    0.0315 H   0  0
   -0.6605   -4.9916   -1.1724 H   0  0
   -2.0459   -1.1257   -0.8225 H   0  0
   -0.9871   -2.1551   -1.9988 H   0  0
    0.2024    1.4362    5.6234 H   0  0
   -0.0243   -0.1189    6.6698 H   0  0
    2.7630    0.5837    6.6174 H   0  0
    2.5099    1.9580    8.4980 H   0  0
    0.6336    1.9580    8.2892 H   0  0
   -3.2340   -4.4654   -1.0282 H   0  0
   -5.3193   -5.0853   -2.2296 H   0  0
   -6.3100   -3.5331   -3.9107 H   0  0
   -5.1930   -1.3567   -4.4052 H   0  0
   -3.1319   -0.7022   -3.1788 H   0  0
    0.6266   -8.2524   -0.9576 H   0  0
    1.1927   -4.5006   -3.0490 H   0  0
    2.1019   -5.7433   -5.0085 H   0  0
    2.2418   -8.2354   -4.9596 H   0  0
    1.5255   -9.4812   -2.9210 H   0  0
   -2.9740    0.3837    2.4950 H   0  0
   -4.2580    1.9149    1.0123 H   0  0
   -5.9166    0.9946   -0.6115 H   0  0
   -6.3764   -1.4584   -0.6604 H   0  0
   -5.0841   -3.0004    0.7986 H   0  0
  1  2  1  0  0  0
  3  2  1  0  0  0
  3  4  1  0  0  0
  5  4  1  0  0  0
  5  6  1  0  0  0
  7  5  1  0  0  0
  7  8  1  0  0  0
  7  9  1  0  0  0
  9 10  1  0  0  0
  9 11  1  0  0  0
 11  3  1  0  0  0
 11 12  1  0  0  0
  6 13  1  0  0  0
  8 14  1  0  0  0
 14 15  1  0  0  0
 10 16  1  0  0  0
 16 17  1  0  0  0
  1 18  1  0  0  0
 18 19  1  0  0  0
 19 20  2  0  0  0
 21 22  2  0  0  0
 22 23  1  0  0  0
 23 24  2  0  0  0
 24 25  1  0  0  0
 17 21  1  0  0  0
 17 25  2  0  0  0
 27 28  1  0  0  0
 28 29  2  0  0  0
 29 30  1  0  0  0
 26 30  2  0  0  0
 26 15  1  0  0  0
 15 27  2  0  0  0
 12 31  1  0  0  0
 31 32  2  0  0  0
 31 33  1  0  0  0
 34 35  1  0  0  0
 35 36  2  0  0  0
 36 37  1  0  0  0
 37 38  2  0  0  0
 38 33  1  0  0  0
 34 33  2  0  0  0
  2 39  1  0  0  0
  2 40  1  0  0  0
  3 41  1  0  0  0
  5 42  1  0  0  0
  7 43  1  0  0  0
  9 44  1  0  0  0
 11 45  1  0  0  0
 12 46  1  0  0  0
 13 47  1  0  0  0
 13 48  1  0  0  0
 13 49  1  0  0  0
 14 50  1  0  0  0
 14 51  1  0  0  0
 16 52  1  0  0  0
 16 53  1  0  0  0
 18 54  1  0  0  0
 18 55  1  0  0  0
 19 56  1  0  0  0
 20 57  1  0  0  0
 20 58  1  0  0  0
 21 59  1  0  0  0
 22 60  1  0  0  0
 23 61  1  0  0  0
 24 62  1  0  0  0
 25 63  1  0  0  0
 26 64  1  0  0  0
 27 65  1  0  0  0
 28 66  1  0  0  0
 29 67  1  0  0  0
 30 68  1  0  0  0
 34 69  1  0  0  0
 35 70  1  0  0  0
 36 71  1  0  0  0
 37 72  1  0  0  0
 38 73  1  0  0  0
M  END
> <Clean Energy>
33.1804

$$$$
DHSL2009-236
  DSViewer          3D                             0

 83 87  0  0  0  0  0  0  0  0999 V2000
    0.1850   -4.6419    0.0605 O   0  0
   -0.5286   -5.8903    0.1569 C   0  0
    0.4383   -7.0975    0.0282 C   0  0  1  0  0  0
    1.3201   -7.1262    1.1764 O   0  0
    2.3199   -8.1783    1.1697 C   0  0  2  0  0  0
    3.2827   -8.0279    0.0993 O   0  0
    1.6366   -9.5776    1.1106 C   0  0  2  0  0  0
    2.6551  -10.6126    1.0722 O   0  0
    0.6790   -9.6449   -0.1199 C   0  0  1  0  0  0
   -0.0479  -10.8949   -0.0932 O   0  0
   -0.3292   -8.4529   -0.0970 C   0  0  1  0  0  0
   -1.2296   -8.5911    1.0183 N   0  0
    4.0322   -6.7973    0.1223 C   0  0
    2.2958  -11.8773    1.6789 C   0  0
    3.3876  -12.8770    1.5755 C   0  0
   -0.4531  -11.4562   -1.3591 C   0  0
   -1.2711  -12.6930   -1.2250 C   0  0
   -0.6772   -3.4833    0.0708 C   0  0
    0.1047   -2.2638    0.0538 C   0  0
   -0.4658   -1.0440    0.0200 C   0  0
   -1.8040  -13.2844   -2.3963 C   0  0
   -2.6244  -14.4259   -2.3217 C   0  0
   -2.9144  -15.0051   -1.0744 C   0  0
   -2.3797  -14.4452    0.0987 C   0  0
   -1.5657  -13.2984    0.0232 C   0  0
    3.9426  -13.4770    2.7319 C   0  0
    3.8555  -13.2938    0.3063 C   0  0
    4.8263  -14.3087    0.1973 C   0  0
    5.3450  -14.9164    1.3547 C   0  0
    4.9103  -14.4929    2.6222 C   0  0
   -2.5003   -9.0874    1.0480 C   0  0
   -3.0130   -9.1603    2.1875 O   0  0
   -3.2712   -9.5418   -0.0489 C   0  0
   -3.5041   -8.7246   -1.1790 C   0  0
   -4.2559   -9.2009   -2.2680 C   0  0
   -4.8009  -10.4961   -2.2370 C   0  0
   -4.6038  -11.3091   -1.1073 C   0  0
   -3.8549  -10.8312   -0.0153 C   0  0
    0.1905    0.1988    0.0100 C   0  0
   -0.5951    1.3821    0.0055 C   0  0
   -0.0027    2.6586   -0.0065 C   0  0
    1.3956    2.7808   -0.0135 C   0  0
    2.1995    1.6312   -0.0074 C   0  0
    1.6031    0.3578    0.0039 C   0  0
   -0.9432   -5.9029    1.1649 H   0  0
   -1.1939   -5.9042   -0.7063 H   0  0
    1.0820   -6.9639   -0.8412 H   0  0
    2.9020   -8.0191    2.0773 H   0  0
    1.0776   -9.8007    2.0193 H   0  0
    1.2447   -9.6516   -1.0515 H   0  0
   -0.9652   -8.4712   -0.9820 H   0  0
   -0.9184   -8.2900    1.9308 H   0  0
    4.2127   -6.5011    1.1556 H   0  0
    4.9856   -6.9430   -0.3857 H   0  0
    3.4654   -6.0171   -0.3857 H   0  0
    2.1624  -11.6690    2.7405 H   0  0
    1.4631  -12.2621    1.0902 H   0  0
   -1.0994  -10.7052   -1.8134 H   0  0
    0.4729  -11.7494   -1.8537 H   0  0
   -1.2374   -3.5067   -0.8639 H   0  0
   -1.2061   -3.5004    1.0238 H   0  0
    1.1946   -2.2641    0.0672 H   0  0
   -1.5554   -1.0643   -0.0010 H   0  0
   -1.5788  -12.8536   -3.3719 H   0  0
   -3.0359  -14.8624   -3.2318 H   0  0
   -3.5528  -15.8867   -1.0169 H   0  0
   -2.5959  -14.8998    1.0655 H   0  0
   -1.1591  -12.8745    0.9414 H   0  0
    3.6202  -13.1521    3.7211 H   0  0
    3.4636  -12.8277   -0.5978 H   0  0
    5.1771  -14.6245   -0.7852 H   0  0
    6.0826  -15.7144    1.2695 H   0  0
    5.3236  -14.9523    3.5201 H   0  0
   -3.0985   -7.7134   -1.2111 H   0  0
   -4.4166   -8.5645   -3.1382 H   0  0
   -5.3743  -10.8686   -3.0859 H   0  0
   -5.0320  -12.3111   -1.0781 H   0  0
   -3.7262  -11.4642    0.8627 H   0  0
   -1.6826    1.3086    0.0114 H   0  0
   -0.6267    3.5523   -0.0103 H   0  0
    1.8571    3.7683   -0.0238 H   0  0
    3.2853    1.7272   -0.0115 H   0  0
    2.2471   -0.5216    0.0081 H   0  0
  1  2  1  0  0  0
  3  2  1  0  0  0
  3  4  1  0  0  0
  5  4  1  0  0  0
  5  6  1  0  0  0
  7  5  1  0  0  0
  7  8  1  0  0  0
  7  9  1  0  0  0
  9 10  1  0  0  0
  9 11  1  0  0  0
 11  3  1  0  0  0
 11 12  1  0  0  0
  6 13  1  0  0  0
  8 14  1  0  0  0
 14 15  1  0  0  0
 10 16  1  0  0  0
 16 17  1  0  0  0
  1 18  1  0  0  0
 18 19  1  0  0  0
 21 22  2  0  0  0
 22 23  1  0  0  0
 23 24  2  0  0  0
 24 25  1  0  0  0
 17 21  1  0  0  0
 17 25  2  0  0  0
 27 28  1  0  0  0
 28 29  2  0  0  0
 29 30  1  0  0  0
 26 30  2  0  0  0
 26 15  1  0  0  0
 15 27  2  0  0  0
 12 31  1  0  0  0
 31 32  2  0  0  0
 31 33  1  0  0  0
 34 35  1  0  0  0
 35 36  2  0  0  0
 36 37  1  0  0  0
 37 38  2  0  0  0
 38 33  1  0  0  0
 34 33  2  0  0  0
 19 20  2  0  0  0
 20 39  1  0  0  0
 40 41  1  0  0  0
 41 42  2  0  0  0
 42 43  1  0  0  0
 43 44  2  0  0  0
 44 39  1  0  0  0
 40 39  2  0  0  0
  2 45  1  0  0  0
  2 46  1  0  0  0
  3 47  1  0  0  0
  5 48  1  0  0  0
  7 49  1  0  0  0
  9 50  1  0  0  0
 11 51  1  0  0  0
 12 52  1  0  0  0
 13 53  1  0  0  0
 13 54  1  0  0  0
 13 55  1  0  0  0
 14 56  1  0  0  0
 14 57  1  0  0  0
 16 58  1  0  0  0
 16 59  1  0  0  0
 18 60  1  0  0  0
 18 61  1  0  0  0
 19 62  1  0  0  0
 20 63  1  0  0  0
 21 64  1  0  0  0
 22 65  1  0  0  0
 23 66  1  0  0  0
 24 67  1  0  0  0
 25 68  1  0  0  0
 26 69  1  0  0  0
 27 70  1  0  0  0
 28 71  1  0  0  0
 29 72  1  0  0  0
 30 73  1  0  0  0
 34 74  1  0  0  0
 35 75  1  0  0  0
 36 76  1  0  0  0
 37 77  1  0  0  0
 38 78  1  0  0  0
 40 79  1  0  0  0
 41 80  1  0  0  0
 42 81  1  0  0  0
 43 82  1  0  0  0
 44 83  1  0  0  0
M  END
> <Clean Energy>
79067.6

$$$$
DHSL2009-237
  DSViewer          3D                             0

 80 83  0  0  0  0  0  0  0  0999 V2000
    1.0954   -0.2612    5.0158 O   0  0
   -0.0073   -0.7119    4.1980 C   0  0
    0.4595   -1.4652    2.9174 C   0  0  1  0  0  0
    1.1287   -2.7081    3.2501 O   0  0
    1.6581   -3.4527    2.1141 C   0  0  2  0  0  0
    2.7234   -2.7490    1.4341 O   0  0
    0.5299   -3.8258    1.1028 C   0  0  2  0  0  0
    1.0941   -4.5446   -0.0387 O   0  0
   -0.2240   -2.5223    0.6918 C   0  0  1  0  0  0
   -1.3288   -2.8606   -0.1701 O   0  0
   -0.7327   -1.7528    1.9503 C   0  0  1  0  0  0
   -1.7301   -2.5114    2.6609 N   0  0
    3.8755   -2.4669    2.2485 C   0  0
    0.2001   -5.4637   -0.7212 C   0  0
    0.8190   -6.2138   -1.8469 C   0  0
   -1.6932   -1.9141   -1.1956 C   0  0
   -2.7141   -2.4446   -2.1357 C   0  0
    0.6716    0.5696    6.1244 C   0  0
    1.7825    0.9686    6.9633 C   0  0
    1.6108    1.7245    8.0563 C   0  0
   -3.2217   -3.7640   -2.0447 C   0  0
   -4.1631   -4.2424   -2.9742 C   0  0
   -4.6236   -3.4058   -4.0054 C   0  0
   -4.1549   -2.0835   -4.0925 C   0  0
   -3.2016   -1.6096   -3.1700 C   0  0
    0.9180   -7.6261   -1.8069 C   0  0
    1.2371   -5.5434   -3.0229 C   0  0
    1.7096   -6.2687   -4.1355 C   0  0
    1.7836   -7.6724   -4.0828 C   0  0
    1.3933   -8.3508   -2.9155 C   0  0
   -3.0872   -2.4455    2.5710 C   0  0
   -3.7111   -3.2633    3.2849 O   0  0
   -3.8378   -1.6061    1.7152 C   0  0
   -4.7345   -2.1883    0.7881 C   0  0
   -5.4673   -1.3881   -0.1185 C   0  0
   -5.2825    0.0112   -0.0962 C   0  0
   -4.4119    0.6047    0.8358 C   0  0
   -3.7101   -0.1993    1.7512 C   0  0
   -6.3115   -1.9010   -1.0581 N   0  0
   -7.2377   -2.8888   -0.8984 C   0  0
   -8.0375   -3.2909   -2.0673 C   0  0
   -7.4631   -3.4284    0.2110 O   0  0
   -0.5390   -1.4291    4.8233 H   0  0
   -0.5036    0.2035    3.8759 H   0  0
    1.2220   -0.8663    2.4194 H   0  0
    2.1373   -4.3226    2.5633 H   0  0
   -0.1776   -4.5477    1.5107 H   0  0
    0.4146   -1.8741    0.0917 H   0  0
   -1.2484   -0.8431    1.6429 H   0  0
   -1.4283   -3.2030    3.3323 H   0  0
    3.6014   -2.5340    3.3013 H   0  0
    4.6606   -3.1909    2.0306 H   0  0
    4.2372   -1.4621    2.0306 H   0  0
   -0.0685   -6.2091    0.0273 H   0  0
   -0.5714   -4.8345   -1.1651 H   0  0
   -2.1579   -1.0800   -0.6697 H   0  0
   -0.7865   -1.7536   -1.7788 H   0  0
    0.2780    1.4861    5.6849 H   0  0
    0.0306   -0.0558    6.7459 H   0  0
    2.8140    0.6815    6.7588 H   0  0
    2.4735    2.0320    8.6473 H   0  0
    0.6084    2.0320    8.3543 H   0  0
   -2.8820   -4.4227   -1.2454 H   0  0
   -4.5364   -5.2634   -2.8951 H   0  0
   -5.3414   -3.7810   -4.7348 H   0  0
   -4.5309   -1.4253   -4.8758 H   0  0
   -2.8374   -0.5860   -3.2576 H   0  0
    0.6231   -8.1651   -0.9066 H   0  0
    1.1947   -4.4553   -3.0722 H   0  0
    2.0186   -5.7429   -5.0390 H   0  0
    2.1428   -8.2337   -4.9454 H   0  0
    1.4592   -9.4379   -2.8699 H   0  0
   -4.8628   -3.2706    0.7722 H   0  0
   -5.8181    0.6407   -0.8068 H   0  0
   -4.2812    1.6867    0.8486 H   0  0
   -3.0637    0.2704    2.4927 H   0  0
   -6.2426   -1.5014   -1.9832 H   0  0
   -8.0764   -4.3787   -2.1241 H   0  0
   -9.0487   -2.8959   -1.9689 H   0  0
   -7.5797   -2.8959   -2.9741 H   0  0
  1  2  1  0  0  0
  3  2  1  0  0  0
  3  4  1  0  0  0
  5  4  1  0  0  0
  5  6  1  0  0  0
  7  5  1  0  0  0
  7  8  1  0  0  0
  7  9  1  0  0  0
  9 10  1  0  0  0
  9 11  1  0  0  0
 11  3  1  0  0  0
 11 12  1  0  0  0
  6 13  1  0  0  0
  8 14  1  0  0  0
 14 15  1  0  0  0
 10 16  1  0  0  0
 16 17  1  0  0  0
  1 18  1  0  0  0
 18 19  1  0  0  0
 19 20  2  0  0  0
 21 22  2  0  0  0
 22 23  1  0  0  0
 23 24  2  0  0  0
 24 25  1  0  0  0
 17 21  1  0  0  0
 17 25  2  0  0  0
 27 28  1  0  0  0
 28 29  2  0  0  0
 29 30  1  0  0  0
 26 30  2  0  0  0
 26 15  1  0  0  0
 15 27  2  0  0  0
 12 31  1  0  0  0
 31 33  1  0  0  0
 34 35  1  0  0  0
 35 36  2  0  0  0
 36 37  1  0  0  0
 37 38  2  0  0  0
 38 33  1  0  0  0
 34 33  2  0  0  0
 35 39  1  0  0  0
 39 40  1  0  0  0
 40 41  1  0  0  0
 40 42  2  0  0  0
 31 32  2  0  0  0
  2 43  1  0  0  0
  2 44  1  0  0  0
  3 45  1  0  0  0
  5 46  1  0  0  0
  7 47  1  0  0  0
  9 48  1  0  0  0
 11 49  1  0  0  0
 12 50  1  0  0  0
 13 51  1  0  0  0
 13 52  1  0  0  0
 13 53  1  0  0  0
 14 54  1  0  0  0
 14 55  1  0  0  0
 16 56  1  0  0  0
 16 57  1  0  0  0
 18 58  1  0  0  0
 18 59  1  0  0  0
 19 60  1  0  0  0
 20 61  1  0  0  0
 20 62  1  0  0  0
 21 63  1  0  0  0
 22 64  1  0  0  0
 23 65  1  0  0  0
 24 66  1  0  0  0
 25 67  1  0  0  0
 26 68  1  0  0  0
 27 69  1  0  0  0
 28 70  1  0  0  0
 29 71  1  0  0  0
 30 72  1  0  0  0
 34 73  1  0  0  0
 36 74  1  0  0  0
 37 75  1  0  0  0
 38 76  1  0  0  0
 39 77  1  0  0  0
 41 78  1  0  0  0
 41 79  1  0  0  0
 41 80  1  0  0  0
M  END
> <Clean Energy>
32.3866

$$$$
DHSL2009-238
  DSViewer          3D                             0

 90 94  0  0  0  0  0  0  0  0999 V2000
    0.2782   -4.6370    0.0923 O   0  0
   -0.4003   -5.9058    0.1865 C   0  0
    0.6024   -7.0800    0.0353 C   0  0  1  0  0  0
    1.5123   -7.0820    1.1613 O   0  0
    2.5401   -8.1064    1.1316 C   0  0  2  0  0  0
    3.4850   -7.9024    0.0568 O   0  0
    1.9182   -9.5358    1.0449 C   0  0  2  0  0  0
    2.9771  -10.5409    0.9794 O   0  0
    0.9386   -9.5999   -0.1707 C   0  0  1  0  0  0
    0.2873  -10.8910   -0.2022 O   0  0
   -0.1239   -8.4589   -0.0798 C   0  0  1  0  0  0
   -0.9778   -8.6355    1.0664 N   0  0
    4.2467   -6.6829    0.1324 C   0  0
    2.6651  -11.8340    1.5639 C   0  0
    3.7641  -12.8381    1.4940 C   0  0
   -0.0901  -11.4149   -1.4935 C   0  0
   -0.6186  -12.8054   -1.4318 C   0  0
   -0.6174   -3.5037    0.0593 C   0  0
    0.1275   -2.2608    0.0320 C   0  0
   -0.4639   -1.0506    0.0203 C   0  0
   -1.0278  -13.4357   -2.6323 C   0  0
   -1.5300  -14.7511   -2.6245 C   0  0
   -1.6298  -15.4583   -1.4143 C   0  0
   -1.2319  -14.8496   -0.2128 C   0  0
   -0.7317  -13.5353   -0.2214 C   0  0
    4.2891  -13.4333    2.6693 C   0  0
    4.2484  -13.2910    0.2427 C   0  0
    5.1995  -14.3291    0.1683 C   0  0
    5.6875  -14.9261    1.3442 C   0  0
    5.2389  -14.4707    2.5956 C   0  0
   -2.2346   -9.1509    1.1330 C   0  0
   -2.7560   -9.1623    2.2716 O   0  0
   -2.9540   -9.7299    0.0662 C   0  0
   -3.3269  -11.0908    0.1497 C   0  0
   -3.9788  -11.7370   -0.9252 C   0  0
   -4.2463  -11.0011   -2.0981 C   0  0
   -3.9277   -9.6334   -2.1724 C   0  0
   -3.3004   -8.9942   -1.0892 C   0  0
   -4.3385  -13.0531   -0.9023 N   0  0
   -4.8907  -13.7330    0.1437 C   0  0
   -5.2253  -15.1585   -0.0262 C   0  0
   -5.1584  -13.1730    1.2337 O   0  0
    0.1851    0.1989    0.0043 C   0  0
    1.3747    2.7954   -0.0077 C   0  0
    2.1847    1.6499   -0.0056 C   0  0
    1.5985    0.3706   -0.0004 C   0  0
   -0.6062    1.3792   -0.0025 C   0  0
   -0.0219    2.6587   -0.0077 C   0  0
   -0.8022   -5.9397    1.1991 H   0  0
   -1.0753   -5.9324   -0.6689 H   0  0
    1.2237   -6.9233   -0.8465 H   0  0
    3.1099   -7.9441    2.0465 H   0  0
    1.3841   -9.8101    1.9546 H   0  0
    1.4815   -9.5363   -1.1137 H   0  0
   -0.8035   -8.5035   -0.9308 H   0  0
   -0.6391   -8.3507    1.9743 H   0  0
    4.4103   -6.4209    1.1777 H   0  0
    5.2080   -6.8237   -0.3616 H   0  0
    3.6984   -5.8808   -0.3616 H   0  0
    2.5048  -11.6352    2.6235 H   0  0
    1.8533  -12.2321    0.9551 H   0  0
   -0.9127  -10.7849   -1.8319 H   0  0
    0.8346  -11.4596   -2.0689 H   0  0
   -1.1564   -3.5637   -0.8862 H   0  0
   -1.1660   -3.5165    1.0011 H   0  0
    1.2171   -2.2342    0.0193 H   0  0
   -1.5533   -1.0852    0.0241 H   0  0
   -0.9551  -12.8994   -3.5785 H   0  0
   -1.8418  -15.2225   -3.5564 H   0  0
   -2.0153  -16.4778   -1.4075 H   0  0
   -1.3113  -15.3971    0.7263 H   0  0
   -0.4285  -13.0775    0.7201 H   0  0
    3.9565  -13.0869    3.6477 H   0  0
    3.8836  -12.8338   -0.6770 H   0  0
    5.5591  -14.6714   -0.8021 H   0  0
    6.4111  -15.7392    1.2858 H   0  0
    5.6273  -14.9218    3.5087 H   0  0
   -3.1081  -11.6515    1.0584 H   0  0
   -4.7039  -11.4942   -2.9558 H   0  0
   -4.1677   -9.0672   -3.0723 H   0  0
   -3.0825   -7.9277   -1.1452 H   0  0
   -4.1791  -13.5798   -1.7493 H   0  0
   -5.3349  -15.6252    0.9528 H   0  0
   -6.1607  -15.2488   -0.5784 H   0  0
   -4.4279  -15.6557   -0.5784 H   0  0
    1.8282    3.7866   -0.0092 H   0  0
    3.2697    1.7538   -0.0080 H   0  0
    2.2507   -0.5027   -0.0001 H   0  0
   -1.6934    1.3009   -0.0036 H   0  0
   -0.6534    3.5470   -0.0119 H   0  0
  1  2  1  0  0  0
  3  2  1  0  0  0
  3  4  1  0  0  0
  5  4  1  0  0  0
  5  6  1  0  0  0
  7  5  1  0  0  0
  7  8  1  0  0  0
  7  9  1  0  0  0
  9 10  1  0  0  0
  9 11  1  0  0  0
 11  3  1  0  0  0
 11 12  1  0  0  0
  6 13  1  0  0  0
  8 14  1  0  0  0
 14 15  1  0  0  0
 10 16  1  0  0  0
 16 17  1  0  0  0
  1 18  1  0  0  0
 18 19  1  0  0  0
 19 20  2  0  0  0
 21 22  2  0  0  0
 22 23  1  0  0  0
 23 24  2  0  0  0
 24 25  1  0  0  0
 17 21  1  0  0  0
 17 25  2  0  0  0
 27 28  1  0  0  0
 28 29  2  0  0  0
 29 30  1  0  0  0
 26 30  2  0  0  0
 26 15  1  0  0  0
 15 27  2  0  0  0
 12 31  1  0  0  0
 31 33  1  0  0  0
 34 35  1  0  0  0
 35 36  2  0  0  0
 36 37  1  0  0  0
 37 38  2  0  0  0
 38 33  1  0  0  0
 34 33  2  0  0  0
 35 39  1  0  0  0
 39 40  1  0  0  0
 40 41  1  0  0  0
 40 42  2  0  0  0
 31 32  2  0  0  0
 20 43  1  0  0  0
 44 45  1  0  0  0
 45 46  2  0  0  0
 47 48  1  0  0  0
 44 48  2  0  0  0
 46 43  1  0  0  0
 43 47  2  0  0  0
  2 49  1  0  0  0
  2 50  1  0  0  0
  3 51  1  0  0  0
  5 52  1  0  0  0
  7 53  1  0  0  0
  9 54  1  0  0  0
 11 55  1  0  0  0
 12 56  1  0  0  0
 13 57  1  0  0  0
 13 58  1  0  0  0
 13 59  1  0  0  0
 14 60  1  0  0  0
 14 61  1  0  0  0
 16 62  1  0  0  0
 16 63  1  0  0  0
 18 64  1  0  0  0
 18 65  1  0  0  0
 19 66  1  0  0  0
 20 67  1  0  0  0
 21 68  1  0  0  0
 22 69  1  0  0  0
 23 70  1  0  0  0
 24 71  1  0  0  0
 25 72  1  0  0  0
 26 73  1  0  0  0
 27 74  1  0  0  0
 28 75  1  0  0  0
 29 76  1  0  0  0
 30 77  1  0  0  0
 34 78  1  0  0  0
 36 79  1  0  0  0
 37 80  1  0  0  0
 38 81  1  0  0  0
 39 82  1  0  0  0
 41 83  1  0  0  0
 41 84  1  0  0  0
 41 85  1  0  0  0
 44 86  1  0  0  0
 45 87  1  0  0  0
 46 88  1  0  0  0
 47 89  1  0  0  0
 48 90  1  0  0  0
M  END
> <Clean Energy>
75050.9

$$$$
DFD2009_1R
  SciTegic12132405553D

 44 44  0  0  0  0            999 V2000
   -8.4455    2.8776    0.2076 C   0  0
   -9.6349    2.7648   -0.3764 C   0  0
   -9.7712    1.9732   -1.5989 C   0  0
   -8.7082    1.3716   -2.1221 C   0  0
   -7.3962    1.4943   -1.4842 C   0  0
   -7.2618    2.2207   -0.3577 C   0  0
   -6.0235    2.4063    0.3475 O   0  0
   -4.8631    1.7640   -0.2067 C   0  0
   -3.6481    2.0771    0.6691 C   0  0  1  0  0  0
   -2.4109    1.3925    0.0741 C   0  0
   -1.2686    1.6796    0.8833 O   0  0
  -10.7447    3.4132    0.2052 N   0  0
   -3.4387    3.5273    0.7065 N   0  0
  -12.1665    3.3452   -0.4404 P   0  0
  -13.1356    4.2510    0.3659 O   0  0
  -12.1060    3.8060   -1.7404 O   0  0
  -12.6782    1.8733   -0.4362 O   0  0
  -14.4139    4.3002   -0.2828 C   0  0
  -15.3624    5.1921    0.5318 C   0  0
  -12.6983    1.3516    0.9036 C   0  0
  -13.2050   -0.0965    0.8741 C   0  0
   -8.3516    3.4511    1.0944 H   0  0
  -10.7150    1.8755   -2.0697 H   0  0
   -8.8111    0.7981   -3.0081 H   0  0
   -6.5758    1.0014   -1.9320 H   0  0
   -5.0194    0.6759   -0.2369 H   0  0
   -4.6816    2.1397   -1.2240 H   0  0
   -3.8221    1.7039    1.6881 H   0  0
   -2.5754    0.3060    0.0432 H   0  0
   -2.2428    1.7675   -0.9455 H   0  0
   -1.1186    2.6568    0.9094 H   0  0
  -10.6168    3.9346    1.0413 H   0  0
   -4.2721    3.9841    1.1010 H   0  0
   -3.2781    3.8717   -0.2498 H   0  0
  -14.8309    3.2852   -0.3481 H   0  0
  -14.2972    4.7146   -1.2940 H   0  0
  -16.3436    5.2314    0.0370 H   0  0
  -14.9437    6.2066    0.5984 H   0  0
  -15.4774    4.7753    1.5429 H   0  0
  -13.3671    1.9629    1.5257 H   0  0
  -11.6824    1.3767    1.3224 H   0  0
  -13.2219   -0.4998    1.8969 H   0  0
  -12.5348   -0.7053    0.2501 H   0  0
  -14.2206   -0.1198    0.4532 H   0  0
  1  2  2  0
  2  3  1  0
  3  4  2  0
  4  5  1  0
  5  6  2  0
  1  6  1  0
  7  8  1  0
  8  9  1  0
  9 10  1  0
 10 11  1  0
  6  7  1  0
  2 12  1  0
  9 13  1  0
 12 14  1  0
 14 15  1  0
 14 16  2  0
 14 17  1  0
 18 19  1  0
 15 18  1  0
 20 21  1  0
 17 20  1  0
  1 22  1  0
  3 23  1  0
  4 24  1  0
  5 25  1  0
  8 26  1  0
  8 27  1  0
  9 28  1  0
 10 29  1  0
 10 30  1  0
 11 31  1  0
 12 32  1  0
 13 33  1  0
 13 34  1  0
 18 35  1  0
 18 36  1  0
 19 37  1  0
 19 38  1  0
 19 39  1  0
 20 40  1  0
 20 41  1  0
 21 42  1  0
 21 43  1  0
 21 44  1  0
M  END
> <Name>
DFD2009_1R

> <Clean Energy>
-4.28662

$$$$
DFD2009_S
  SciTegic12132405553D

 44 44  0  0  0  0            999 V2000
   -8.4455    2.8776   -0.2568 C   0  0
   -9.6349    2.7648    0.3273 C   0  0
   -9.7712    1.9732    1.5498 C   0  0
   -8.7082    1.3716    2.0730 C   0  0
   -7.3962    1.4943    1.4350 C   0  0
   -7.2618    2.2207    0.3085 C   0  0
   -6.0235    2.4063   -0.3966 O   0  0
   -4.8631    1.7640    0.1575 C   0  0
   -3.6481    2.0771   -0.7183 C   0  0  2  0  0  0
   -2.4109    1.3925   -0.1232 C   0  0
   -1.2686    1.6796   -0.9325 O   0  0
  -10.7447    3.4132   -0.2543 N   0  0
   -3.4387    3.5273   -0.7556 N   0  0
  -12.1665    3.3452    0.3913 P   0  0
  -13.1356    4.2510   -0.4150 O   0  0
  -12.1060    3.8060    1.6913 O   0  0
  -12.6782    1.8733    0.3870 O   0  0
  -14.4139    4.3002    0.2337 C   0  0
  -15.3624    5.1921   -0.5809 C   0  0
  -12.6983    1.3516   -0.9527 C   0  0
  -13.2050   -0.0965   -0.9233 C   0  0
   -8.3516    3.4511   -1.1436 H   0  0
  -10.7150    1.8755    2.0205 H   0  0
   -8.8111    0.7981    2.9589 H   0  0
   -6.5758    1.0014    1.8829 H   0  0
   -5.0194    0.6759    0.1877 H   0  0
   -4.6816    2.1397    1.1748 H   0  0
   -3.8221    1.7039   -1.7373 H   0  0
   -2.5754    0.3060   -0.0924 H   0  0
   -2.2428    1.7675    0.8963 H   0  0
   -1.1186    2.6568   -0.9586 H   0  0
  -10.6168    3.9346   -1.0905 H   0  0
   -4.2721    3.9841   -1.1501 H   0  0
   -3.2781    3.8717    0.2006 H   0  0
  -14.8309    3.2852    0.2990 H   0  0
  -14.2972    4.7146    1.2449 H   0  0
  -16.3436    5.2314   -0.0861 H   0  0
  -14.9437    6.2066   -0.6475 H   0  0
  -15.4774    4.7753   -1.5920 H   0  0
  -13.3671    1.9629   -1.5749 H   0  0
  -11.6824    1.3767   -1.3716 H   0  0
  -13.2219   -0.4998   -1.9461 H   0  0
  -12.5348   -0.7053   -0.2992 H   0  0
  -14.2206   -0.1198   -0.5023 H   0  0
  1  2  2  0
  2  3  1  0
  3  4  2  0
  4  5  1  0
  5  6  2  0
  1  6  1  0
  7  8  1  0
  8  9  1  0
  9 10  1  0
 10 11  1  0
  6  7  1  0
  2 12  1  0
  9 13  1  0
 12 14  1  0
 14 15  1  0
 14 16  2  0
 14 17  1  0
 18 19  1  0
 15 18  1  0
 20 21  1  0
 17 20  1  0
  1 22  1  0
  3 23  1  0
  4 24  1  0
  5 25  1  0
  8 26  1  0
  8 27  1  0
  9 28  1  0
 10 29  1  0
 10 30  1  0
 11 31  1  0
 12 32  1  0
 13 33  1  0
 13 34  1  0
 18 35  1  0
 18 36  1  0
 19 37  1  0
 19 38  1  0
 19 39  1  0
 20 40  1  0
 20 41  1  0
 21 42  1  0
 21 43  1  0
 21 44  1  0
M  END
> <Name>
DFD2009_S

> <Clean Energy>
-4.28662490844727

$$$$
DFD2009_2S
  SciTegic12132405553D

 31 31  0  0  0  0            999 V2000
   -2.0068   -0.5924   -0.2245 C   0  0  2  0  0  0
   -0.7369   -1.4313   -0.0487 C   0  0
    0.4081   -0.5964   -0.2186 O   0  0
   -2.0306    0.4753    0.7781 N   0  0
   -3.2311   -1.4904   -0.0390 C   0  0
   -4.4190   -0.7049   -0.2000 O   0  0
   -5.6468   -1.4172   -0.0497 C   0  0
   -6.7757   -0.7255   -0.1914 C   0  0
   -8.0850   -1.3717   -0.0542 C   0  0
   -9.2440   -0.5529   -0.2254 O   0  0
   -8.1439   -2.6801    0.2154 C   0  0
   -6.9190   -3.4575    0.3754 C   0  0
   -5.7290   -2.8768    0.2537 C   0  0
  -10.6525   -1.2386   -0.0569 P   0  0
  -10.9058   -1.6687    1.4240 O   0  0
  -11.7342   -0.1974   -0.4351 O   0  0
  -10.7767   -2.3213   -0.9057 O   0  0
   -2.0212   -0.1522   -1.2315 H   0  0
   -0.7266   -1.8707    0.9588 H   0  0
   -0.7225   -2.2336   -0.7999 H   0  0
    0.3908   -0.1969   -1.1233 H   0  0
   -1.2053    1.0778    0.6570 H   0  0
   -2.0171    0.0583    1.7188 H   0  0
   -3.2091   -1.9277    0.9697 H   0  0
   -3.2107   -2.2926   -0.7907 H   0  0
   -6.7268    0.3114   -0.4070 H   0  0
   -9.0746   -3.1657    0.3153 H   0  0
   -6.9786   -4.4941    0.5904 H   0  0
   -4.8593   -3.4678    0.3752 H   0  0
  -10.2548   -2.3449    1.7104 H   0  0
  -11.6607    0.5861    0.1648 H   0  0
  1  2  1  0
  2  3  1  0
  1  4  1  0
  5  6  1  0
  6  7  1  0
  9 10  1  0
  1  5  1  0
 11 12  1  0
 12 13  2  0
 13  7  1  0
  8  7  2  0
  9 11  2  0
  8  9  1  0
 10 14  1  0
 14 15  1  0
 14 16  1  0
 14 17  2  0
  1 18  1  0
  2 19  1  0
  2 20  1  0
  3 21  1  0
  4 22  1  0
  4 23  1  0
  5 24  1  0
  5 25  1  0
  8 26  1  0
 11 27  1  0
 12 28  1  0
 13 29  1  0
 15 30  1  0
 16 31  1  0
M  END
> <Name>
DFD2009_2S

> <Clean Energy>
-0.32638

$$$$
DFD2009_3R
  SciTegic12132405553D

 31 31  0  0  0  0            999 V2000
   -2.0068   -0.5924   -0.2245 C   0  0  1  0  0  0
   -0.7369   -1.4313   -0.0487 C   0  0
    0.4081   -0.5964   -0.2186 O   0  0
   -2.0306    0.4753    0.7781 N   0  0
   -2.0144    0.0306   -1.6215 C   0  0
   -1.9876   -1.0140   -2.6023 O   0  0
   -1.9885   -0.5760   -3.9608 C   0  0
   -1.9641   -1.5142   -4.9053 C   0  0
   -1.9624   -1.1598   -6.3283 C   0  0
   -1.9384   -2.2319   -7.2733 O   0  0
   -1.9885    0.1295   -6.6816 C   0  0
   -2.0148    1.1745   -5.6629 C   0  0
   -2.0150    0.8594   -4.3711 C   0  0
   -1.9141   -1.8552   -8.8030 P   0  0
   -0.5630   -1.1801   -9.2044 O   0  0
   -2.0434   -3.1667   -9.6157 O   0  0
   -2.9804   -1.0382   -9.1249 O   0  0
   -2.8912   -1.2333   -0.1014 H   0  0
   -0.7266   -1.8707    0.9588 H   0  0
   -0.7225   -2.2336   -0.7999 H   0  0
    0.3908   -0.1969   -1.1233 H   0  0
   -1.2053    1.0778    0.6570 H   0  0
   -2.0171    0.0583    1.7188 H   0  0
   -1.1278    0.6706   -1.7366 H   0  0
   -2.9251    0.6341   -1.7453 H   0  0
   -1.9453   -2.5360   -4.6231 H   0  0
   -1.9909    0.4069   -7.6990 H   0  0
   -2.0341    2.1935   -5.9554 H   0  0
   -2.0345    1.6401   -3.6566 H   0  0
   -0.4389   -0.3308   -8.7285 H   0  0
   -1.2856   -3.7646   -9.3981 H   0  0
  1  2  1  0
  2  3  1  0
  1  4  1  0
  5  6  1  0
  6  7  1  0
  9 10  1  0
  1  5  1  0
 11 12  1  0
 12 13  2  0
 13  7  1  0
  8  7  2  0
  9 11  2  0
  8  9  1  0
 10 14  1  0
 14 15  1  0
 14 16  1  0
 14 17  2  0
  1 18  1  0
  2 19  1  0
  2 20  1  0
  3 21  1  0
  4 22  1  0
  4 23  1  0
  5 24  1  0
  5 25  1  0
  8 26  1  0
 11 27  1  0
 12 28  1  0
 13 29  1  0
 15 30  1  0
 16 31  1  0
M  END
> <Name>
DFD2009_3R

> <Clean Energy>
-0.32638

$$$$
DFD2009_6R
  SciTegic12132405553D

 28 28  0  0  0  0            999 V2000
    2.0648    0.7754   -0.6397 C   0  0  2  0  0  0
    1.9879   -0.4834    0.2689 C   0  0  2  0  0  0
    3.1297   -1.1581   -0.4269 C   0  0  1  0  0  0
    4.2163   -0.0330   -0.2723 C   0  0  2  0  0  0
    3.4872    1.1948   -0.6101 O   0  0
    1.0996    1.9071   -0.2626 C   0  0
   -0.2426    1.4341   -0.3318 O   0  0
   -1.2082    2.5748    0.0589 P   0  0
   -2.6666    2.0611   -0.0166 O   0  0
    0.7445   -1.1913    0.1995 O   0  0
    3.5107   -2.4524    0.0648 O   0  0
    5.3453   -0.2940   -1.1063 O   0  0
   -0.8978    3.0394    1.5032 O   0  0
   -1.0466    3.6337   -0.8114 O   0  0
    4.7792    0.1689    1.1886 C   0  0
    5.6627    1.2262    1.1769 F   0  0
    5.4454   -0.9646    1.6038 F   0  0
    1.8479    0.4329   -1.6606 H   0  0
    2.2136   -0.2663    1.3126 H   0  0
    2.8450   -1.2516   -1.4840 H   0  0
    1.2274    2.7450   -0.9614 H   0  0
    1.3186    2.2448    0.7598 H   0  0
   -2.8624    1.7617   -0.9392 H   0  0
    0.0242   -0.6496    0.6003 H   0  0
    3.7193   -2.4086    1.0245 H   0  0
    5.7759   -1.1379   -0.8248 H   0  0
   -1.0105    2.2780    2.1254 H   0  0
    3.9723    0.3915    1.8956 H   0  0
  2  1  1  0
  3  2  1  0
  4  3  1  0
  4  5  1  0
  1  5  1  0
  6  7  1  0
  7  8  1  0
  8  9  1  0
  1  6  1  0
  2 10  1  0
  3 11  1  0
  4 12  1  0
  8 13  1  0
  8 14  2  0
  4 15  1  0
 15 16  1  0
 15 17  1  0
  1 18  1  0
  2 19  1  0
  3 20  1  0
  6 21  1  0
  6 22  1  0
  9 23  1  0
 10 24  1  0
 11 25  1  0
 12 26  1  0
 13 27  1  0
 15 28  1  0
M  END
> <Name>
DFD2009_6R

> <Clean Energy>
33.69

$$$$
DFD2009_8S
  SciTegic12132405553D

 23 24  0  0  0  0            999 V2000
   -7.5027    2.1222    0.0474 C   0  0
   -8.7330    1.3367    0.1240 C   0  0
   -8.6874    0.0091    0.0603 C   0  0
   -7.4069   -0.6750   -0.0883 C   0  0
   -6.2767    0.0250   -0.1651 C   0  0
   -6.3230    1.5220   -0.0938 C   0  0
   -9.9579    1.9902    0.2602 N   0  3
   -9.9936    3.1636    0.3078 O   0  0
  -11.0807    1.2909    0.3262 O   0  5
   -5.1692    2.3563   -0.1677 O   0  0
   -3.9332    1.6602   -0.3515 C   0  0
   -2.7819    2.6674   -0.3764 C   0  0  2  0  0  0
   -1.4171    2.1954   -0.0679 C   0  0
   -2.2733    3.1604    0.7863 O   0  0
   -7.5497    3.1797    0.1003 H   0  0
   -9.5825   -0.5565    0.1154 H   0  0
   -7.3751   -1.7336   -0.1365 H   0  0
   -5.3622   -0.4979   -0.2723 H   0  0
   -3.7771    0.9545    0.4744 H   0  0
   -3.9590    1.1131   -1.3068 H   0  0
   -2.8228    3.4191   -1.1767 H   0  0
   -1.2255    1.4145    0.6864 H   0  0
   -0.5569    2.8154   -0.3477 H   0  0
  1  2  1  0
  2  3  2  0
  3  4  1  0
  4  5  2  0
  5  6  1  0
  1  6  2  0
  2  7  1  0
  7  8  2  0
  7  9  1  0
 10 11  1  0
 11 12  1  0
 12 13  1  0
  6 10  1  0
 12 14  1  0
 14 13  1  0
  1 15  1  0
  3 16  1  0
  4 17  1  0
  5 18  1  0
 11 19  1  0
 11 20  1  0
 12 21  1  0
 13 22  1  0
 13 23  1  0
M  CHG  2   7   1   9  -1
M  END
> <Name>
DFD2009_8S

> <Clean Energy>
51.8837852478027

$$$$
DFD2009_8R
  SciTegic12132405553D

 23 24  0  0  0  0            999 V2000
   -7.5027    2.1222    0.0474 C   0  0
   -8.7330    1.3367    0.1240 C   0  0
   -8.6874    0.0091    0.0603 C   0  0
   -7.4069   -0.6750   -0.0883 C   0  0
   -6.2767    0.0250   -0.1651 C   0  0
   -6.3230    1.5220   -0.0938 C   0  0
   -9.9579    1.9902    0.2602 N   0  3
   -9.9936    3.1636    0.3078 O   0  0
  -11.0807    1.2909    0.3262 O   0  5
   -5.1692    2.3563   -0.1677 O   0  0
   -3.9332    1.6602   -0.3515 C   0  0
   -2.7819    2.6674   -0.3764 C   0  0  1  0  0  0
   -2.2303    3.2021    0.8847 C   0  0
   -1.5235    2.2322   -0.0920 O   0  0
   -7.5497    3.1797    0.1003 H   0  0
   -9.5825   -0.5565    0.1154 H   0  0
   -7.3751   -1.7336   -0.1365 H   0  0
   -5.3622   -0.4979   -0.2723 H   0  0
   -3.7771    0.9545    0.4744 H   0  0
   -3.9590    1.1131   -1.3068 H   0  0
   -2.8228    3.4191   -1.1767 H   0  0
   -1.4842    4.0136    0.8984 H   0  0
   -2.3114    2.6075    1.8026 H   0  0
  1  2  1  0
  2  3  2  0
  3  4  1  0
  4  5  2  0
  5  6  1  0
  1  6  2  0
  2  7  1  0
  7  8  2  0
  7  9  1  0
 10 11  1  0
 11 12  1  0
 12 13  1  0
  6 10  1  0
 12 14  1  0
 14 13  1  0
  1 15  1  0
  3 16  1  0
  4 17  1  0
  5 18  1  0
 11 19  1  0
 11 20  1  0
 12 21  1  0
 13 22  1  0
 13 23  1  0
M  CHG  2   7   1   9  -1
M  END
> <Name>
DFD2009_8R

> <Clean Energy>
51.8837852478027

$$$$
DFD2009_9S
  SciTegic12132405553D

 38 39  0  0  0  0            999 V2000
   -9.0148    2.0076    0.1081 C   0  0
  -10.1921    1.3881    0.0649 C   0  0
  -10.2502   -0.0613   -0.0510 C   0  0
   -9.1261   -0.7678   -0.1139 C   0  0
   -7.8243   -0.0971   -0.0673 C   0  0
   -7.7626    1.2449    0.0400 C   0  0
  -11.3733    2.1281    0.1307 N   0  3
  -11.3301    3.2990    0.2243 O   0  0
  -12.5440    1.5108    0.0875 O   0  5
   -6.5409    2.0019    0.0938 O   0  0
   -5.3168    1.2516    0.0265 C   0  0
   -4.1286    2.2136    0.0935 C   0  0  1  0  0  0
   -2.8308    1.4063    0.0167 C   0  0
   -1.7166    2.2934    0.0741 O   0  0
   -4.1893    3.1222   -1.0038 O   0  0
   -0.5366    1.5626    0.0017 C   0  0
    0.7470    2.2502    0.0400 C   0  0
   -0.5718    0.3307   -0.0957 O   0  0
    1.9880    1.4805   -0.0363 C   0  0
    3.1626    2.1062   -0.0017 C   0  0
    3.2113    3.5651    0.1130 C   0  0
    2.0808    4.2655    0.1825 C   0  0
    0.7899    3.5769    0.1443 C   0  0
   -8.9796    3.0638    0.1925 H   0  0
  -11.1884   -0.5543   -0.0854 H   0  0
   -9.1717   -1.8239   -0.1983 H   0  0
   -6.9538   -0.6938   -0.1200 H   0  0
   -5.2763    0.6931   -0.9200 H   0  0
   -5.2642    0.5502    0.8718 H   0  0
   -4.1597    2.7745    1.0383 H   0  0
   -2.7863    0.7042    0.8611 H   0  0
   -2.8061    0.8463   -0.9287 H   0  0
   -4.1609    2.6128   -1.8512 H   0  0
    1.9518    0.4239   -0.1194 H   0  0
    4.0626    1.5481   -0.0571 H   0  0
    4.1468    4.0640    0.1406 H   0  0
    2.1158    5.3222    0.2655 H   0  0
   -0.1104    4.1344    0.1996 H   0  0
  1  2  2  0
  2  3  1  0
  3  4  2  0
  4  5  1  0
  5  6  2  0
  1  6  1  0
  2  7  1  0
  7  8  2  0
  7  9  1  0
  6 10  1  0
 11 12  1  0
 12 13  1  0
 13 14  1  0
 10 11  1  0
 12 15  1  0
 16 17  1  0
 14 16  1  0
 16 18  2  0
 19 20  2  0
 20 21  1  0
 21 22  2  0
 22 23  1  0
 17 19  1  0
 17 23  2  0
  1 24  1  0
  3 25  1  0
  4 26  1  0
  5 27  1  0
 11 28  1  0
 11 29  1  0
 12 30  1  0
 13 31  1  0
 13 32  1  0
 15 33  1  0
 19 34  1  0
 20 35  1  0
 21 36  1  0
 22 37  1  0
 23 38  1  0
M  CHG  2   7   1   9  -1
M  END
> <Name>
DFD2009_9S

> <Clean Energy>
-4.4831

$$$$
DFD2009_9R
  SciTegic12132405553D

 38 39  0  0  0  0            999 V2000
   -9.0130    2.0085    0.1101 C   0  0
  -10.1913    1.3909    0.0699 C   0  0
  -10.2521   -0.0584   -0.0451 C   0  0
   -9.1293   -0.7668   -0.1102 C   0  0
   -7.8262   -0.0982   -0.0670 C   0  0
   -7.7622    1.2437    0.0394 C   0  0
  -11.3711    2.1330    0.1379 N   0  3
  -11.3257    3.3039    0.2308 O   0  0
  -12.5429    1.5178    0.0973 O   0  5
   -6.5394    1.9989    0.0892 O   0  0
   -5.3162    1.2472    0.0183 C   0  0
   -4.1275    2.2087    0.0830 C   0  0  2  0  0  0
   -2.8296    1.4013    0.0087 C   0  0
   -1.7162    2.2891    0.0697 O   0  0
   -4.1675    2.9338    1.3102 O   0  0
   -0.5351    1.5599    0.0014 C   0  0
    0.7473    2.2497    0.0425 C   0  0
   -0.5682    0.3279   -0.0957 O   0  0
    1.9899    1.4824   -0.0319 C   0  0
    3.1632    2.1106    0.0045 C   0  0
    3.2088    3.5696    0.1193 C   0  0
    2.0767    4.2677    0.1872 C   0  0
    0.7874    3.5765    0.1469 C   0  0
   -8.9757    3.0647    0.1940 H   0  0
  -11.1912   -0.5499   -0.0772 H   0  0
   -9.1768   -1.8229   -0.1940 H   0  0
   -6.9568   -0.6963   -0.1217 H   0  0
   -5.2789    0.6878   -0.9277 H   0  0
   -5.2617    0.5466    0.8641 H   0  0
   -4.1742    2.9107   -0.7614 H   0  0
   -2.7877    0.6998    0.8538 H   0  0
   -2.8017    0.8407   -0.9362 H   0  0
   -4.1251    2.2979    2.0666 H   0  0
    1.9560    0.4258   -0.1151 H   0  0
    4.0644    1.5543   -0.0496 H   0  0
    4.1432    4.0703    0.1484 H   0  0
    2.1095    5.3244    0.2703 H   0  0
   -0.1142    4.1322    0.2006 H   0  0
  1  2  2  0
  2  3  1  0
  3  4  2  0
  4  5  1  0
  5  6  2  0
  1  6  1  0
  2  7  1  0
  7  8  2  0
  7  9  1  0
  6 10  1  0
 11 12  1  0
 12 13  1  0
 13 14  1  0
 10 11  1  0
 12 15  1  0
 16 17  1  0
 14 16  1  0
 16 18  2  0
 19 20  2  0
 20 21  1  0
 21 22  2  0
 22 23  1  0
 17 19  1  0
 17 23  2  0
  1 24  1  0
  3 25  1  0
  4 26  1  0
  5 27  1  0
 11 28  1  0
 11 29  1  0
 12 30  1  0
 13 31  1  0
 13 32  1  0
 15 33  1  0
 19 34  1  0
 20 35  1  0
 21 36  1  0
 22 37  1  0
 23 38  1  0
M  CHG  2   7   1   9  -1
M  END
> <Name>
DFD2009_9R

> <Clean Energy>
-4.48324

$$$$
DFD2009_10S
  SciTegic12132405553D

 44 45  0  0  0  0            999 V2000
   -9.1512    1.6847    0.5194 C   0  0
  -10.3058    1.0602    0.3000 C   0  0
  -10.3170   -0.2581   -0.3160 C   0  0
   -9.1723   -0.8396   -0.6603 C   0  0
   -7.8950   -0.1619   -0.4238 C   0  0
   -7.8769    1.0590    0.1463 C   0  0
  -11.5085    1.6692    0.6606 N   0  3
  -11.5032    2.7341    1.1583 O   0  0
  -12.6567    1.0471    0.4419 O   0  5
   -6.6824    1.8109    0.4226 O   0  0
   -5.4362    1.1957    0.0552 C   0  0
   -4.2833    2.1328    0.4197 C   0  0  1  0  0  0
   -2.9726    1.4040    0.0418 C   0  0
   -1.8372    2.1808    0.3892 O   0  0
   -4.5082    3.3919   -0.2924 O   0  0
   -0.6761    1.4845    0.0706 C   0  0
    0.6215    2.0888    0.3343 C   0  0
   -0.7414    0.3596   -0.4378 O   0  0
   -3.3628    4.6408   -0.0107 S   0  0
   -2.7084    4.4448    1.3440 O   0  0
   -4.0963    5.9683   -0.0163 O   0  0
   -2.1127    4.7052   -1.3328 C   0  0
    1.8456    1.3642   -0.0013 C   0  0
    3.0328    1.9172    0.2384 C   0  0
    3.1110    3.2509    0.8379 C   0  0
    1.9948    3.9100    1.1433 C   0  0
    0.6914    3.3014    0.8797 C   0  0
   -9.1501    2.6451    0.9686 H   0  0
  -11.2372   -0.7552   -0.4905 H   0  0
   -9.1837   -1.8004   -1.1090 H   0  0
   -7.0070   -0.6572   -0.7116 H   0  0
   -5.4210    1.0074   -1.0281 H   0  0
   -5.3169    0.2461    0.5967 H   0  0
   -4.2948    2.3222    1.5021 H   0  0
   -2.9264    0.4568    0.5969 H   0  0
   -2.9665    1.1953   -1.0370 H   0  0
   -1.4130    5.5295   -1.1337 H   0  0
   -2.6111    4.8720   -2.2982 H   0  0
   -1.5597    3.7599   -1.3678 H   0  0
    1.7877    0.3985   -0.4356 H   0  0
    3.9213    1.3919   -0.0050 H   0  0
    4.0564    3.6919    1.0289 H   0  0
    2.0509    4.8759    1.5773 H   0  0
   -0.1982    3.8266    1.1222 H   0  0
  1  2  2  0
  2  3  1  0
  3  4  2  0
  4  5  1  0
  5  6  2  0
  1  6  1  0
  2  7  1  0
  7  8  2  0
  7  9  1  0
  6 10  1  0
 11 12  1  0
 12 13  1  0
 13 14  1  0
 10 11  1  0
 12 15  1  0
 16 17  1  0
 14 16  1  0
 16 18  2  0
 15 19  1  0
 19 20  2  0
 19 21  2  0
 19 22  1  0
 23 24  2  0
 24 25  1  0
 25 26  2  0
 26 27  1  0
 17 23  1  0
 17 27  2  0
  1 28  1  0
  3 29  1  0
  4 30  1  0
  5 31  1  0
 11 32  1  0
 11 33  1  0
 12 34  1  0
 13 35  1  0
 13 36  1  0
 22 37  1  0
 22 38  1  0
 22 39  1  0
 23 40  1  0
 24 41  1  0
 25 42  1  0
 26 43  1  0
 27 44  1  0
M  CHG  2   7   1   9  -1
M  END
> <Name>
DFD2009_10S

> <Clean Energy>
-0.265223

$$$$
DFD2009_10R
  SciTegic12132405553D

 44 45  0  0  0  0            999 V2000
   -9.1512    1.6847    0.5194 C   0  0
  -10.3058    1.0602    0.3000 C   0  0
  -10.3170   -0.2581   -0.3160 C   0  0
   -9.1723   -0.8396   -0.6603 C   0  0
   -7.8950   -0.1619   -0.4238 C   0  0
   -7.8769    1.0590    0.1463 C   0  0
  -11.5085    1.6692    0.6606 N   0  3
  -11.5032    2.7341    1.1583 O   0  0
  -12.6567    1.0471    0.4419 O   0  5
   -6.6824    1.8109    0.4226 O   0  0
   -5.4362    1.1957    0.0552 C   0  0
   -4.2736    2.1363    0.4160 C   0  0  2  0  0  0
   -2.9726    1.4040    0.0418 C   0  0
   -1.8372    2.1808    0.3892 O   0  0
   -4.1965    2.4685    1.8419 O   0  0
   -0.6761    1.4845    0.0706 C   0  0
    0.6215    2.0888    0.3343 C   0  0
   -0.7414    0.3596   -0.4378 O   0  0
   -5.5251    3.3347    2.5020 S   0  0
   -6.2298    4.1122    1.4063 O   0  0
   -4.9909    4.3103    3.5331 O   0  0
   -6.6843    2.2211    3.3570 C   0  0
    1.8456    1.3642   -0.0013 C   0  0
    3.0328    1.9172    0.2384 C   0  0
    3.1110    3.2509    0.8379 C   0  0
    1.9948    3.9100    1.1433 C   0  0
    0.6914    3.3014    0.8797 C   0  0
   -9.1501    2.6451    0.9686 H   0  0
  -11.2372   -0.7552   -0.4905 H   0  0
   -9.1837   -1.8004   -1.1090 H   0  0
   -7.0070   -0.6572   -0.7116 H   0  0
   -5.4210    1.0074   -1.0281 H   0  0
   -5.3169    0.2461    0.5967 H   0  0
   -4.3684    3.0587   -0.1662 H   0  0
   -2.9264    0.4568    0.5969 H   0  0
   -2.9665    1.1953   -1.0370 H   0  0
   -7.5064    2.8106    3.7874 H   0  0
   -6.1543    1.6894    4.1598 H   0  0
   -7.0925    1.4932    2.6469 H   0  0
    1.7877    0.3985   -0.4356 H   0  0
    3.9213    1.3919   -0.0050 H   0  0
    4.0564    3.6919    1.0289 H   0  0
    2.0509    4.8759    1.5773 H   0  0
   -0.1982    3.8266    1.1222 H   0  0
  1  2  2  0
  2  3  1  0
  3  4  2  0
  4  5  1  0
  5  6  2  0
  1  6  1  0
  2  7  1  0
  7  8  2  0
  7  9  1  0
  6 10  1  0
 11 12  1  0
 12 13  1  0
 13 14  1  0
 10 11  1  0
 12 15  1  0
 16 17  1  0
 14 16  1  0
 16 18  2  0
 15 19  1  0
 19 20  2  0
 19 21  2  0
 19 22  1  0
 23 24  2  0
 24 25  1  0
 25 26  2  0
 26 27  1  0
 17 23  1  0
 17 27  2  0
  1 28  1  0
  3 29  1  0
  4 30  1  0
  5 31  1  0
 11 32  1  0
 11 33  1  0
 12 34  1  0
 13 35  1  0
 13 36  1  0
 22 37  1  0
 22 38  1  0
 22 39  1  0
 23 40  1  0
 24 41  1  0
 25 42  1  0
 26 43  1  0
 27 44  1  0
M  CHG  2   7   1   9  -1
M  END
> <Name>
DFD2009_10R

> <Clean Energy>
5.27457

$$$$
DFD2009_11S
  SciTegic12132405553D

 44 45  0  0  0  0            999 V2000
   -9.4055    1.7294    0.6045 C   0  0
  -10.5707    1.1278    0.3825 C   0  0
  -10.6109   -0.1700   -0.2704 C   0  0
   -9.4799   -0.7584   -0.6472 C   0  0
   -8.1889   -0.1063   -0.4084 C   0  0
   -8.1454    1.0971    0.1965 C   0  0
  -11.7553    1.7431    0.7765 N   0  0
   -6.9370    1.8234    0.4785 O   0  0
   -5.7041    1.2023    0.0779 C   0  0
   -4.5356    2.1146    0.4553 C   0  0  1  0  0  0
   -3.2369    1.3830    0.0425 C   0  0
   -2.0907    2.1387    0.4010 O   0  0
   -4.7542    3.3960   -0.2182 O   0  0
   -0.9383    1.4428    0.0522 C   0  0
    0.3660    2.0296    0.3228 C   0  0
   -1.0169    0.3338   -0.4881 O   0  0
   -3.5918    4.6241    0.0842 S   0  0
   -4.3104    5.9591    0.1233 O   0  0
   -2.9244    4.3840    1.4254 O   0  0
   -2.3563    4.7110   -1.2503 C   0  0
    1.5822    1.3067   -0.0439 C   0  0
    2.7752    1.8442    0.2026 C   0  0
    2.8676    3.1591    0.8407 C   0  0
    1.7585    3.8165    1.1744 C   0  0
    0.4489    3.2250    0.9033 C   0  0
   -9.3869    2.6762    1.0815 H   0  0
  -11.5418   -0.6467   -0.4458 H   0  0
   -9.5119   -1.7054   -1.1233 H   0  0
   -7.3120   -0.6057   -0.7223 H   0  0
  -11.7289    2.6309    1.2232 H   0  0
  -12.6267    1.2941    0.6109 H   0  0
   -5.7042    1.0449   -1.0104 H   0  0
   -5.5908    0.2361    0.5907 H   0  0
   -4.5329    2.2730    1.5427 H   0  0
   -3.1948    0.4198    0.5698 H   0  0
   -3.2438    1.2054   -1.0419 H   0  0
   -1.6451    5.5219   -1.0371 H   0  0
   -2.8637    4.9095   -2.2049 H   0  0
   -1.8143    3.7611   -1.3176 H   0  0
    1.5141    0.3548   -0.5061 H   0  0
    3.6581    1.3203   -0.0633 H   0  0
    3.8175    3.5877    1.0371 H   0  0
    1.8249    4.7687    1.6364 H   0  0
   -0.4348    3.7489    1.1684 H   0  0
  1  2  2  0
  2  3  1  0
  3  4  2  0
  4  5  1  0
  5  6  2  0
  1  6  1  0
  2  7  1  0
  6  8  1  0
  9 10  1  0
 10 11  1  0
 11 12  1  0
  8  9  1  0
 10 13  1  0
 14 15  1  0
 12 14  1  0
 14 16  2  0
 13 17  1  0
 17 18  2  0
 17 19  2  0
 17 20  1  0
 21 22  2  0
 22 23  1  0
 23 24  2  0
 24 25  1  0
 15 21  1  0
 15 25  2  0
  1 26  1  0
  3 27  1  0
  4 28  1  0
  5 29  1  0
  7 30  1  0
  7 31  1  0
  9 32  1  0
  9 33  1  0
 10 34  1  0
 11 35  1  0
 11 36  1  0
 20 37  1  0
 20 38  1  0
 20 39  1  0
 21 40  1  0
 22 41  1  0
 23 42  1  0
 24 43  1  0
 25 44  1  0
M  END
> <Name>
DFD2009_11S

> <Clean Energy>
-0.128415

$$$$
DFD2009_11R
  SciTegic12132405553D

 44 45  0  0  0  0            999 V2000
   -9.4260    1.7615    0.5047 C   0  0
  -10.5887    1.1767    0.2323 C   0  0
  -10.6181   -0.1354   -0.3925 C   0  0
   -9.4798   -0.7533   -0.6921 C   0  0
   -8.1918   -0.1194   -0.3961 C   0  0
   -8.1593    1.0968    0.1821 C   0  0
  -11.7805    1.8227    0.5465 N   0  0
   -6.9551    1.8088    0.5176 O   0  0
   -5.7172    1.1603    0.2064 C   0  0
   -4.5123    2.0520    0.5883 C   0  0  2  0  0  0
   -3.2474    1.3004    0.1698 C   0  0
   -2.1054    2.1001    0.4666 O   0  0
   -4.3909    2.3343    2.0198 O   0  0
   -0.9507    1.4245    0.0909 C   0  0
    0.3514    2.0445    0.2974 C   0  0
   -1.0237    0.2999   -0.4173 O   0  0
   -5.6763    3.2216    2.7338 S   0  0
   -5.0912    4.1367    3.7923 O   0  0
   -6.3674    4.0659    1.6796 O   0  0
   -6.8630    2.1183    3.5650 C   0  0
    1.5675    1.3349   -0.0975 C   0  0
    2.7584    1.9000    0.0906 C   0  0
    2.8496    3.2316    0.6927 C   0  0
    1.7416    3.8771    1.0520 C   0  0
    0.4331    3.2554    0.8449 C   0  0
   -9.4141    2.7186    0.9613 H   0  0
  -11.5471   -0.5990   -0.6088 H   0  0
   -9.5037   -1.7106   -1.1477 H   0  0
   -7.3081   -0.6416   -0.6480 H   0  0
  -11.7611    2.7200    0.9741 H   0  0
  -12.6503    1.3861    0.3432 H   0  0
   -5.6829    0.9760   -0.8769 H   0  0
   -5.6472    0.2036    0.7436 H   0  0
   -4.5728    3.0001    0.0361 H   0  0
   -3.1865    0.3523    0.7222 H   0  0
   -3.2837    1.0954   -0.9094 H   0  0
   -7.6562    2.7199    4.0312 H   0  0
   -6.3405    1.5379    4.3386 H   0  0
   -7.3077    1.4326    2.8358 H   0  0
    1.5006    0.3706   -0.5334 H   0  0
    3.6405    1.3856   -0.1957 H   0  0
    3.7980    3.6820    0.8426 H   0  0
    1.8074    4.8415    1.4880 H   0  0
   -0.4493    3.7693    1.1311 H   0  0
  1  2  2  0
  2  3  1  0
  3  4  2  0
  4  5  1  0
  5  6  2  0
  1  6  1  0
  2  7  1  0
  6  8  1  0
  9 10  1  0
 10 11  1  0
 11 12  1  0
  8  9  1  0
 10 13  1  0
 14 15  1  0
 12 14  1  0
 14 16  2  0
 13 17  1  0
 17 18  2  0
 17 19  2  0
 17 20  1  0
 21 22  2  0
 22 23  1  0
 23 24  2  0
 24 25  1  0
 15 21  1  0
 15 25  2  0
  1 26  1  0
  3 27  1  0
  4 28  1  0
  5 29  1  0
  7 30  1  0
  7 31  1  0
  9 32  1  0
  9 33  1  0
 10 34  1  0
 11 35  1  0
 11 36  1  0
 20 37  1  0
 20 38  1  0
 20 39  1  0
 21 40  1  0
 22 41  1  0
 23 42  1  0
 24 43  1  0
 25 44  1  0
M  END
> <Name>
DFD2009_11R

> <Clean Energy>
0.38219

$$$$
DFD2009_12S
  SciTegic12132405553D

 61 62  0  0  0  0            999 V2000
   -8.5344    2.0714    0.2886 C   0  0
   -9.7185    1.5307    0.0149 C   0  0
   -9.7848    0.2390   -0.6704 C   0  0
   -8.6652   -0.3871   -1.0170 C   0  0
   -7.3600    0.2047   -0.7189 C   0  0
   -7.2887    1.3928   -0.0879 C   0  0
  -10.8838    2.2207    0.3969 N   0  0
   -6.0615    2.0611    0.2522 O   0  0
   -4.8421    1.3960   -0.1184 C   0  0
   -3.6497    2.2485    0.3196 C   0  0  1  0  0  0
   -2.3704    1.4689   -0.0650 C   0  0
   -1.2052    2.1650    0.3486 O   0  0
   -3.7886    3.5520   -0.3320 O   0  0
   -0.0735    1.4252    0.0220 C   0  0
    1.2458    1.9464    0.3482 C   0  0
   -0.1831    0.3326   -0.5456 O   0  0
   -2.5855    4.7208    0.0388 S   0  0
   -1.9770    4.4222    1.3962 O   0  0
   -3.2466    6.0850    0.0844 O   0  0
   -1.3008    4.7824   -1.2499 C   0  0
    2.4400    1.1770    0.0047 C   0  0
    3.6469    1.6543    0.3018 C   0  0
    3.7767    2.9496    0.9725 C   0  0
    2.6877    3.6495    1.2850 C   0  0
    1.3626    3.1241    0.9583 C   0  0
  -12.3093    1.6409    0.1049 P   0  0
  -13.3714    2.6918    0.5311 O   0  0
  -12.4659    0.2994    0.9059 O   0  0
  -12.4375    1.3830   -1.2456 O   0  0
  -13.2472    3.8643   -0.2758 C   0  0
  -14.3048    4.8897    0.1570 C   0  0
  -13.6235   -0.4916    0.5201 C   0  0
  -14.9644    0.2166    0.8118 C   0  0
   -8.4903    3.0069    0.7857 H   0  0
  -10.7220   -0.2014   -0.8917 H   0  0
   -8.7177   -1.3228   -1.5132 H   0  0
   -6.4938   -0.3251   -1.0115 H   0  0
  -10.7941    3.0851    0.8799 H   0  0
   -4.8099    1.2614   -1.2093 H   0  0
   -4.7884    0.4154    0.3764 H   0  0
   -3.6787    2.3839    1.4097 H   0  0
   -2.3888    0.4940    0.4415 H   0  0
   -2.3473    1.3146   -1.1527 H   0  0
   -0.5632    5.5562   -0.9933 H   0  0
   -1.7650    5.0239   -2.2165 H   0  0
   -0.7985    3.8111   -1.3207 H   0  0
    2.3449    0.2392   -0.4811 H   0  0
    4.5139    1.0966    0.0527 H   0  0
    4.7378    3.3304    1.2092 H   0  0
    2.7812    4.5876    1.7705 H   0  0
    0.4948    3.6818    1.2064 H   0  0
  -13.4019    3.6008   -1.3315 H   0  0
  -12.2436    4.2939   -0.1479 H   0  0
  -14.2135    5.7941   -0.4618 H   0  0
  -14.1501    5.1506    1.2139 H   0  0
  -15.3075    4.4565    0.0289 H   0  0
  -13.6042   -1.4335    1.0864 H   0  0
  -13.5589   -0.7187   -0.5536 H   0  0
  -15.7943   -0.4391    0.5122 H   0  0
  -15.0222    1.1532    0.2441 H   0  0
  -15.0379    0.4329    1.8870 H   0  0
  1  2  2  0
  2  3  1  0
  3  4  2  0
  4  5  1  0
  5  6  2  0
  1  6  1  0
  2  7  1  0
  6  8  1  0
  9 10  1  0
 10 11  1  0
 11 12  1  0
  8  9  1  0
 10 13  1  0
 14 15  1  0
 12 14  1  0
 14 16  2  0
 13 17  1  0
 17 18  2  0
 17 19  2  0
 17 20  1  0
 21 22  2  0
 22 23  1  0
 23 24  2  0
 24 25  1  0
 15 21  1  0
 15 25  2  0
  7 26  1  0
 26 27  1  0
 26 28  1  0
 26 29  2  0
 30 31  1  0
 27 30  1  0
 32 33  1  0
 28 32  1  0
  1 34  1  0
  3 35  1  0
  4 36  1  0
  5 37  1  0
  7 38  1  0
  9 39  1  0
  9 40  1  0
 10 41  1  0
 11 42  1  0
 11 43  1  0
 20 44  1  0
 20 45  1  0
 20 46  1  0
 21 47  1  0
 22 48  1  0
 23 49  1  0
 24 50  1  0
 25 51  1  0
 30 52  1  0
 30 53  1  0
 31 54  1  0
 31 55  1  0
 31 56  1  0
 32 57  1  0
 32 58  1  0
 33 59  1  0
 33 60  1  0
 33 61  1  0
M  END
> <Name>
DFD2009_12S

> <Clean Energy>
-0.712803

$$$$
DFD2009_12R
  SciTegic12132405553D

 61 62  0  0  0  0            999 V2000
   -8.5531    2.0487    0.3376 C   0  0
   -9.7347    1.5206    0.0324 C   0  0
   -9.7962    0.2236   -0.6437 C   0  0
   -8.6742   -0.4196   -0.9495 C   0  0
   -7.3718    0.1588   -0.6153 C   0  0
   -7.3066    1.3515    0.0063 C   0  0
  -10.9020    2.2283    0.3730 N   0  0
   -6.0833    2.0092    0.3821 O   0  0
   -4.8637    1.3301    0.0635 C   0  0
   -3.6349    2.1661    0.4920 C   0  0  2  0  0  0
   -2.3904    1.3870    0.0628 C   0  0
   -1.2263    2.1362    0.4021 O   0  0
   -3.5237    2.3935    1.9341 O   0  0
   -0.0899    1.4352    0.0170 C   0  0
    1.2293    2.0028    0.2614 C   0  0
   -0.1939    0.3323   -0.5317 O   0  0
   -4.7881    3.2986    2.6630 S   0  0
   -5.4358    4.2026    1.6310 O   0  0
   -4.1871    4.1554    3.7607 O   0  0
   -6.0227    2.2080    3.4395 C   0  0
    2.4261    1.2664   -0.1434 C   0  0
    3.6327    1.7836    0.0793 C   0  0
    3.7606    3.0894    0.7293 C   0  0
    2.6701    3.7594    1.0975 C   0  0
    1.3444    3.1903    0.8525 C   0  0
  -12.3253    1.6636    0.0434 P   0  0
  -13.3866    2.7295    0.4330 O   0  0
  -12.5210    0.3290    0.8474 O   0  0
  -12.4174    1.3988   -1.3086 O   0  0
  -13.2255    3.8959   -0.3764 C   0  0
  -14.2826    4.9361    0.0209 C   0  0
  -13.6767   -0.4505    0.4331 C   0  0
  -15.0167    0.2754    0.6824 C   0  0
   -8.5116    2.9877    0.8286 H   0  0
  -10.7316   -0.2070   -0.8906 H   0  0
   -8.7229   -1.3591   -1.4389 H   0  0
   -6.5028   -0.3838   -0.8745 H   0  0
  -10.8158    3.0956    0.8513 H   0  0
   -4.8208    1.1830   -1.0252 H   0  0
   -4.8334    0.3532    0.5670 H   0  0
   -3.6558    3.1346   -0.0268 H   0  0
   -2.3690    0.4184    0.5818 H   0  0
   -2.4188    1.2214   -1.0234 H   0  0
   -6.8015    2.8196    3.9169 H   0  0
   -5.5307    1.5832    4.1984 H   0  0
   -6.4801    1.5639    2.6809 H   0  0
    2.3327    0.3208   -0.6140 H   0  0
    4.5008    1.2498   -0.2141 H   0  0
    4.7215    3.5017    0.9068 H   0  0
    2.7625    4.7051    1.5683 H   0  0
    0.4759    3.7236    1.1457 H   0  0
  -13.3532    3.6283   -1.4346 H   0  0
  -12.2209    4.3143   -0.2221 H   0  0
  -14.1629    5.8358   -0.5998 H   0  0
  -14.1548    5.2011    1.0803 H   0  0
  -15.2864    4.5141   -0.1334 H   0  0
  -13.6848   -1.3892    1.0051 H   0  0
  -13.5843   -0.6848   -0.6370 H   0  0
  -15.8456   -0.3722    0.3630 H   0  0
  -15.0469    1.2092    0.1081 H   0  0
  -15.1181    0.4989    1.7539 H   0  0
  1  2  2  0
  2  3  1  0
  3  4  2  0
  4  5  1  0
  5  6  2  0
  1  6  1  0
  2  7  1  0
  6  8  1  0
  9 10  1  0
 10 11  1  0
 11 12  1  0
  8  9  1  0
 10 13  1  0
 14 15  1  0
 12 14  1  0
 14 16  2  0
 13 17  1  0
 17 18  2  0
 17 19  2  0
 17 20  1  0
 21 22  2  0
 22 23  1  0
 23 24  2  0
 24 25  1  0
 15 21  1  0
 15 25  2  0
  7 26  1  0
 26 27  1  0
 26 28  1  0
 26 29  2  0
 30 31  1  0
 27 30  1  0
 32 33  1  0
 28 32  1  0
  1 34  1  0
  3 35  1  0
  4 36  1  0
  5 37  1  0
  7 38  1  0
  9 39  1  0
  9 40  1  0
 10 41  1  0
 11 42  1  0
 11 43  1  0
 20 44  1  0
 20 45  1  0
 20 46  1  0
 21 47  1  0
 22 48  1  0
 23 49  1  0
 24 50  1  0
 25 51  1  0
 30 52  1  0
 30 53  1  0
 31 54  1  0
 31 55  1  0
 31 56  1  0
 32 57  1  0
 32 58  1  0
 33 59  1  0
 33 60  1  0
 33 61  1  0
M  END
> <Name>
DFD2009_12R

> <Clean Energy>
-0.204647

$$$$
DFD2009_14R
  SciTegic12132405553D

 44 44  0  0  0  0            999 V2000
   -8.7114    2.7926    0.4626 C   0  0
   -9.8818    2.5144   -0.1102 C   0  0
   -9.9028    1.7567   -1.3694 C   0  0
   -8.7652    1.3543   -1.9313 C   0  0
   -7.4857    1.6666   -1.2966 C   0  0
   -7.4565    2.3537   -0.1533 C   0  0
   -6.2371    2.6666    0.4720 O   0  0
   -5.1199    2.1578   -0.2711 C   0  0
   -3.8153    2.5481    0.4409 C   0  0  1  0  0  0
   -2.5991    1.9862   -0.3273 C   0  0
   -1.3886    2.3146    0.3601 O   0  0
  -11.0751    2.9598    0.5296 N   0  0
   -3.7441    3.9847    0.5456 N   0  0
  -12.5461    2.7598   -0.0228 P   0  0
  -13.2593    4.1331   -0.0074 O   0  0
  -12.5708    2.2670   -1.3109 O   0  0
  -13.3290    1.7935    0.9101 O   0  0
  -14.6006    3.9762   -0.4734 C   0  0
  -15.3120    5.3406   -0.4556 C   0  0
  -12.7249    0.4970    0.9032 C   0  0
  -13.5162   -0.4417    1.8296 C   0  0
   -2.7063    4.5416    0.5949 N   0  3
   -1.6684    5.0987    0.6441 N   0  5
   -8.6873    3.3519    1.3979 H   0  0
  -10.8549    1.5230   -1.8457 H   0  0
   -8.7876    0.7919   -2.8648 H   0  0
   -6.5545    1.3377   -1.7580 H   0  0
   -5.1891    1.0718   -0.3342 H   0  0
   -5.1274    2.5818   -1.2752 H   0  0
   -3.8229    2.1233    1.4446 H   0  0
   -2.6889    0.9024   -0.4011 H   0  0
   -2.5739    2.4182   -1.3278 H   0  0
   -1.2983    3.3583    0.4316 H   0  0
  -10.9681    3.4730    1.4624 H   0  0
  -15.1320    3.2809    0.1764 H   0  0
  -14.5884    3.5861   -1.4911 H   0  0
  -16.3355    5.2219   -0.8110 H   0  0
  -14.7808    6.0363   -1.1051 H   0  0
  -15.3243    5.7313    0.5619 H   0  0
  -11.6965    0.5735    1.2560 H   0  0
  -12.7329    0.0979   -0.1111 H   0  0
  -13.0565   -1.4300    1.8250 H   0  0
  -14.5449   -0.5184    1.4774 H   0  0
  -13.5087   -0.0429    2.8441 H   0  0
  1  2  2  0
  2  3  1  0
  3  4  2  0
  4  5  1  0
  5  6  2  0
  1  6  1  0
  7  8  1  0
  8  9  1  0
  9 10  1  0
 10 11  1  0
  6  7  1  0
  2 12  1  0
  9 13  1  0
 12 14  1  0
 14 15  1  0
 14 16  2  0
 14 17  1  0
 18 19  1  0
 15 18  1  0
 20 21  1  0
 17 20  1  0
 13 22  2  0
 22 23  2  0
  1 24  1  0
  3 25  1  0
  4 26  1  0
  5 27  1  0
  8 28  1  0
  8 29  1  0
  9 30  1  0
 10 31  1  0
 10 32  1  0
 11 33  1  0
 12 34  1  0
 18 35  1  0
 18 36  1  0
 19 37  1  0
 19 38  1  0
 19 39  1  0
 20 40  1  0
 20 41  1  0
 21 42  1  0
 21 43  1  0
 21 44  1  0
M  CHG  2  22   1  23  -1
M  END
> <Name>
DFD2009_14R

> <Clean Energy>
1.1957

$$$$
DFD2009_14S
  SciTegic12132405553D

 44 44  0  0  0  0            999 V2000
   -8.7139    2.8136    0.4520 C   0  0
   -9.8837    2.5243   -0.1162 C   0  0
   -9.9034    1.7478   -1.3640 C   0  0
   -8.7649    1.3390   -1.9195 C   0  0
   -7.4860    1.6627   -1.2889 C   0  0
   -7.4587    2.3676   -0.1566 C   0  0
   -6.2422    2.6902    0.4659 O   0  0
   -5.1215    2.1687   -0.2631 C   0  0
   -3.8092    2.5339    0.4608 C   0  0  2  0  0  0
   -2.6003    2.0090   -0.3323 C   0  0
   -1.3943    2.3764    0.3413 O   0  0
  -11.0773    2.9764    0.5179 N   0  0
   -3.7863    1.9806    1.7919 N   0  0
  -12.5482    2.7647   -0.0294 P   0  0
  -13.2670    4.1351   -0.0228 O   0  0
  -12.5728    2.2621   -1.3138 O   0  0
  -13.3254    1.8023    0.9128 O   0  0
  -14.6089    3.9694   -0.4837 C   0  0
  -15.3253    5.3312   -0.4736 C   0  0
  -12.7172    0.5076    0.9148 C   0  0
  -13.5038   -0.4263    1.8501 C   0  0
   -4.7773    1.8723    2.4211 N   0  3
   -5.7685    1.7639    3.0506 N   0  5
   -8.6908    3.3874    1.3785 H   0  0
  -10.8551    1.5054   -1.8369 H   0  0
   -8.7860    0.7629   -2.8446 H   0  0
   -6.5540    1.3277   -1.7443 H   0  0
   -5.2073    1.0842   -0.3306 H   0  0
   -5.1121    2.5960   -1.2658 H   0  0
   -3.7379    3.6193    0.5310 H   0  0
   -2.6585    0.9231   -0.4071 H   0  0
   -2.6051    2.4434   -1.3319 H   0  0
   -1.3381    3.4224    0.4139 H   0  0
  -10.9705    3.5038    1.4428 H   0  0
  -15.1357    3.2768    0.1727 H   0  0
  -14.5981    3.5720   -1.4986 H   0  0
  -16.3495    5.2061   -0.8251 H   0  0
  -14.7987    6.0243   -1.1297 H   0  0
  -15.3361    5.7291    0.5411 H   0  0
  -11.6883    0.5902    1.2650 H   0  0
  -12.7258    0.1006   -0.0964 H   0  0
  -13.0410   -1.4131    1.8523 H   0  0
  -14.5329   -0.5090    1.5005 H   0  0
  -13.4956   -0.0196    2.8614 H   0  0
  1  2  2  0
  2  3  1  0
  3  4  2  0
  4  5  1  0
  5  6  2  0
  1  6  1  0
  7  8  1  0
  8  9  1  0
  9 10  1  0
 10 11  1  0
  6  7  1  0
  2 12  1  0
  9 13  1  0
 12 14  1  0
 14 15  1  0
 14 16  2  0
 14 17  1  0
 18 19  1  0
 15 18  1  0
 20 21  1  0
 17 20  1  0
 13 22  2  0
 22 23  2  0
  1 24  1  0
  3 25  1  0
  4 26  1  0
  5 27  1  0
  8 28  1  0
  8 29  1  0
  9 30  1  0
 10 31  1  0
 10 32  1  0
 11 33  1  0
 12 34  1  0
 18 35  1  0
 18 36  1  0
 19 37  1  0
 19 38  1  0
 19 39  1  0
 20 40  1  0
 20 41  1  0
 21 42  1  0
 21 43  1  0
 21 44  1  0
M  CHG  2  22   1  23  -1
M  END
> <Name>
DFD2009_14S

> <Clean Energy>
0.826765

$$$$
DFD2009_16R
  SciTegic12132405553D

 37 37  0  0  0  0            999 V2000
   -3.5169   -1.6734    0.0929 C   0  0  2  0  0  0
   -2.0468   -2.0260    0.3743 C   0  0
   -1.3872   -1.2407   -0.6022 O   0  0
   -1.9844    0.0929   -0.3507 C   0  0
   -3.3862   -0.2219   -0.0443 N   0  0
   -1.7991    0.9798   -1.5999 C   0  0
   -1.3360    0.8737    0.8353 C   0  0
   -4.4371    0.7555   -0.0391 C   0  0
   -5.7873    0.3388    0.0023 O   0  0
   -6.8399    1.3610   -0.0591 C   0  0
   -6.7845    2.1450   -1.3917 C   0  0
   -4.3908   -2.3334    1.2240 C   0  0
   -5.7899   -2.0772    1.1454 O   0  0
   -4.1483    1.9501   -0.1803 O   0  0
   -6.7376    2.3344    1.1376 C   0  0
   -8.1910    0.6468    0.0182 C   0  0
   -3.8231   -2.0589   -0.8890 H   0  0
   -1.7746   -1.6642    1.3689 H   0  0
   -1.8500   -3.1048    0.3108 H   0  0
   -2.2792    1.9533   -1.4407 H   0  0
   -2.2532    0.4838   -2.4691 H   0  0
   -0.7259    1.1298   -1.7812 H   0  0
   -1.8551    1.8342    0.9609 H   0  0
   -0.2765    1.0581    0.6103 H   0  0
   -1.4159    0.2973    1.7663 H   0  0
   -7.6073    2.8730   -1.4158 H   0  0
   -6.8908    1.4432   -2.2306 H   0  0
   -5.8289    2.6762   -1.4779 H   0  0
   -4.0291   -1.9865    2.2021 H   0  0
   -4.2469   -3.4207    1.1555 H   0  0
   -5.9685   -1.1578    1.3809 H   0  0
   -7.5601    3.0610    1.0824 H   0  0
   -5.7800    2.8688    1.1082 H   0  0
   -6.8121    1.7660    2.0752 H   0  0
   -8.9990    1.3908   -0.0237 H   0  0
   -8.2535    0.0873    0.9625 H   0  0
   -8.2853   -0.0476   -0.8284 H   0  0
  1  2  1  0
  2  3  1  0
  3  4  1  0
  4  5  1  0
  1  5  1  0
  4  6  1  0
  4  7  1  0
  8  9  1  0
  9 10  1  0
 10 11  1  0
  5  8  1  0
 12 13  1  0
  1 12  1  0
  8 14  2  0
 10 15  1  0
 10 16  1  0
  1 17  1  0
  2 18  1  0
  2 19  1  0
  6 20  1  0
  6 21  1  0
  6 22  1  0
  7 23  1  0
  7 24  1  0
  7 25  1  0
 11 26  1  0
 11 27  1  0
 11 28  1  0
 12 29  1  0
 12 30  1  0
 13 31  1  0
 15 32  1  0
 15 33  1  0
 15 34  1  0
 16 35  1  0
 16 36  1  0
 16 37  1  0
M  END
> <Name>
DFD2009_16R

> <Clean Energy>
36.4093

$$$$
DFD2009_16S
  SciTegic12132405553D

 37 37  0  0  0  0            999 V2000
   -3.6845   -1.5596   -0.0659 C   0  0  1  0  0  0
   -2.3249   -2.0006    0.4959 C   0  0
   -1.4638   -1.3309   -0.4422 O   0  0
   -2.0144    0.0548   -0.3782 C   0  0
   -3.4433   -0.1802   -0.2091 N   0  0
   -1.6676    0.8478   -1.6526 C   0  0
   -1.4569    0.8930    0.8131 C   0  0
   -4.4512    0.7921   -0.1782 C   0  0
   -5.7941    0.3519   -0.0011 O   0  0
   -6.8521    1.3651    0.0265 C   0  0
   -6.9134    2.1406   -1.3098 C   0  0
   -3.9700   -2.1641   -1.4711 C   0  0
   -4.1275   -3.5914   -1.3934 O   0  0
   -4.1571    1.9877   -0.3052 O   0  0
   -6.6512    2.3479    1.2032 C   0  0
   -8.1881    0.6458    0.2250 C   0  0
   -4.5269   -1.8025    0.5962 H   0  0
   -2.1836   -1.5722    1.4924 H   0  0
   -2.2110   -3.0923    0.5394 H   0  0
   -2.1267    1.8446   -1.6013 H   0  0
   -2.0514    0.3106   -2.5315 H   0  0
   -0.5766    0.9508   -1.7313 H   0  0
   -1.9359    1.8820    0.8151 H   0  0
   -0.3716    1.0139    0.6928 H   0  0
   -1.6639    0.3906    1.7670 H   0  0
   -7.7383    2.8654   -1.2680 H   0  0
   -7.0877    1.4332   -2.1326 H   0  0
   -5.9707    2.6750   -1.4799 H   0  0
   -3.1437   -1.9277   -2.1554 H   0  0
   -4.9000   -1.7257   -1.8609 H   0  0
   -3.2951   -4.0160   -1.0767 H   0  0
   -7.4793    3.0702    1.2145 H   0  0
   -5.7029    2.8869    1.0873 H   0  0
   -6.6410    1.7865    2.1477 H   0  0
   -8.9999    1.3864    0.2487 H   0  0
   -8.1669    0.0922    1.1743 H   0  0
   -8.3525   -0.0543   -0.6063 H   0  0
  1  2  1  0
  2  3  1  0
  3  4  1  0
  4  5  1  0
  1  5  1  0
  4  6  1  0
  4  7  1  0
  8  9  1  0
  9 10  1  0
 10 11  1  0
  5  8  1  0
 12 13  1  0
  1 12  1  0
  8 14  2  0
 10 15  1  0
 10 16  1  0
  1 17  1  0
  2 18  1  0
  2 19  1  0
  6 20  1  0
  6 21  1  0
  6 22  1  0
  7 23  1  0
  7 24  1  0
  7 25  1  0
 11 26  1  0
 11 27  1  0
 11 28  1  0
 12 29  1  0
 12 30  1  0
 13 31  1  0
 15 32  1  0
 15 33  1  0
 15 34  1  0
 16 35  1  0
 16 36  1  0
 16 37  1  0
M  END
> <Name>
DFD2009_16S

> <Clean Energy>
30.3114

$$$$
DFD2009_17R
  SciTegic12132405553D

 60 62  0  0  0  0            999 V2000
   -2.1986   -1.0627   -0.7891 C   0  0  2  0  0  0
   -0.8570   -1.7331   -0.4867 C   0  0
    0.0295   -0.7709   -1.0611 O   0  0
   -0.4341    0.4707   -0.4226 C   0  0
   -1.8841    0.2785   -0.3163 N   0  0
   -0.0416    1.6898   -1.2774 C   0  0
    0.1929    0.6985    0.9902 C   0  0
   -2.7798    1.2840    0.2010 C   0  0
   -4.1880    1.0611    0.2979 O   0  0
   -5.0090    2.1669    0.8528 C   0  0
   -6.4692    1.7278    0.8755 C   0  0
   -2.2908    2.3609    0.5634 O   0  0
   -4.9109    3.4333   -0.0331 C   0  0
   -4.5939    2.4917    2.3089 C   0  0
   -3.3784   -1.8523   -0.1817 C   0  0
   -4.6383   -1.2563   -0.4987 O   0  0
   -5.7783   -1.9832   -0.0172 C   0  0
   -6.9824   -1.5064   -0.3222 C   0  0
   -8.2107   -2.1743    0.1210 C   0  0
   -9.4517   -1.5480   -0.2746 O   0  0
  -10.7179   -2.0987    0.0937 C   0  0
  -11.9209   -1.4037   -0.3451 C   0  0
  -13.1220   -1.8812   -0.0254 C   0  0
  -14.3285   -1.1808   -0.4677 C   0  0
   -8.1108   -3.2962    0.8484 C   0  0
   -6.8000   -3.8405    1.1909 C   0  0
   -5.6875   -3.2341    0.7906 C   0  0
  -10.8463   -3.1279    0.7616 O   0  0
  -12.9031    0.4579   -1.5403 C   0  0
  -14.2245   -0.0664   -1.1894 C   0  0
  -11.8058   -0.1798   -1.1377 C   0  0
   -2.3210   -1.0144   -1.8795 H   0  0
   -0.7090   -1.7872    0.5968 H   0  0
   -0.7782   -2.7370   -0.9255 H   0  0
   -0.4276    2.6069   -0.8129 H   0  0
   -0.4675    1.5807   -2.2846 H   0  0
    1.0535    1.7481   -1.3452 H   0  0
   -0.2111    1.6231    1.4238 H   0  0
    1.2831    0.7903    0.8901 H   0  0
   -0.0423   -0.1436    1.6545 H   0  0
   -7.0870    2.5386    1.2854 H   0  0
   -6.5710    0.8324    1.5055 H   0  0
   -6.7966    1.4965   -0.1480 H   0  0
   -5.5556    4.2174    0.3878 H   0  0
   -5.2458    3.1906   -1.0512 H   0  0
   -3.8767    3.7950   -0.0649 H   0  0
   -5.2429    3.2881    2.6988 H   0  0
   -3.5512    2.8283    2.3404 H   0  0
   -4.7069    1.5905    2.9277 H   0  0
   -3.2504   -1.9210    0.9081 H   0  0
   -3.3656   -2.8617   -0.6164 H   0  0
   -7.0558   -0.6205   -0.8994 H   0  0
  -13.2048   -2.7685    0.5492 H   0  0
  -15.2854   -1.5605   -0.2134 H   0  0
   -8.9629   -3.8016    1.1832 H   0  0
   -6.7351   -4.7291    1.7659 H   0  0
   -4.7546   -3.6564    1.0582 H   0  0
  -12.8200    1.3453   -2.1149 H   0  0
  -15.0987    0.4413   -1.5099 H   0  0
  -10.8484    0.1996   -1.3916 H   0  0
  1  2  1  0
  2  3  1  0
  3  4  1  0
  4  5  1  0
  1  5  1  0
  4  6  1  0
  4  7  1  0
  8  9  1  0
  9 10  1  0
 10 11  1  0
  5  8  1  0
  8 12  2  0
 10 13  1  0
 10 14  1  0
 15 16  1  0
 16 17  1  0
 19 20  1  0
 20 21  1  0
 21 22  1  0
  1 15  1  0
 25 26  1  0
 26 27  2  0
 27 17  1  0
 18 17  2  0
 19 25  2  0
 18 19  1  0
 21 28  2  0
 29 30  1  0
 29 31  2  0
 30 24  2  0
 24 23  1  0
 22 31  1  0
 23 22  2  0
  1 32  1  0
  2 33  1  0
  2 34  1  0
  6 35  1  0
  6 36  1  0
  6 37  1  0
  7 38  1  0
  7 39  1  0
  7 40  1  0
 11 41  1  0
 11 42  1  0
 11 43  1  0
 13 44  1  0
 13 45  1  0
 13 46  1  0
 14 47  1  0
 14 48  1  0
 14 49  1  0
 15 50  1  0
 15 51  1  0
 18 52  1  0
 23 53  1  0
 24 54  1  0
 25 55  1  0
 26 56  1  0
 27 57  1  0
 29 58  1  0
 30 59  1  0
 31 60  1  0
M  END
> <Name>
DFD2009_17R

> <Clean Energy>
34.4996

$$$$
DFD2009_17S
  SciTegic12132405553D

 60 62  0  0  0  0            999 V2000
   -2.4666   -0.9388   -0.7062 C   0  0  1  0  0  0
   -1.2025   -1.7896   -0.5691 C   0  0
   -0.2791   -0.9364   -1.2714 O   0  0
   -0.5280    0.3653   -0.5812 C   0  0
   -1.9618    0.3159   -0.3238 N   0  0
   -0.1013    1.5520   -1.4662 C   0  0
    0.2579    0.5230    0.7563 C   0  0
   -2.7491    1.3357    0.2242 C   0  0
   -4.1411    1.0831    0.3892 O   0  0
   -4.9717    2.1496    0.9534 C   0  0
   -6.4115    1.6361    1.0266 C   0  0
   -2.2284    2.4129    0.5412 O   0  0
   -4.9506    3.4054    0.0516 C   0  0
   -4.5137    2.5144    2.3843 C   0  0
   -2.9282   -0.8668   -2.1739 C   0  0
   -3.3295   -2.1730   -2.6011 O   0  0
   -3.7908   -2.2580   -3.9489 C   0  0
   -4.1766   -3.4542   -4.3873 C   0  0
   -4.6689   -3.6473   -5.7577 C   0  0
   -5.0581   -4.9945   -6.1097 O   0  0
   -5.5554   -5.3132   -7.4115 C   0  0
   -5.9264   -6.6956   -7.6842 C   0  0
   -6.3957   -7.0367   -8.8827 C   0  0
   -6.7678   -8.4259   -9.1536 C   0  0
   -4.7271   -2.5887   -6.5792 C   0  0
   -4.3073   -1.2682   -6.1160 C   0  0
   -3.8624   -1.0938   -4.8761 C   0  0
   -5.6879   -4.4823   -8.3137 O   0  0
   -6.1206   -8.9717   -6.8842 C   0  0
   -6.6369   -9.3480   -8.2017 C   0  0
   -5.7823   -7.7077   -6.6382 C   0  0
   -3.3031   -1.2967   -0.0906 H   0  0
   -0.9140   -1.8498    0.4844 H   0  0
   -1.3165   -2.8005   -0.9840 H   0  0
   -0.3421    2.4953   -0.9572 H   0  0
   -0.6385    1.5031   -2.4242 H   0  0
    0.9811    1.4997   -1.6477 H   0  0
   -0.0071    1.4831    1.2206 H   0  0
    1.3360    0.5052    0.5459 H   0  0
    0.0083   -0.2925    1.4476 H   0  0
   -7.0565    2.4204    1.4471 H   0  0
   -6.4488    0.7451    1.6690 H   0  0
   -6.7580    1.3768    0.0162 H   0  0
   -5.6104    4.1704    0.4840 H   0  0
   -5.3080    3.1374   -0.9525 H   0  0
   -3.9310    3.8040   -0.0169 H   0  0
   -5.1789    3.2901    2.7885 H   0  0
   -3.4847    2.8939    2.3662 H   0  0
   -4.5636    1.6200    3.0209 H   0  0
   -2.1052   -0.5100   -2.8083 H   0  0
   -3.7787   -0.1738   -2.2506 H   0  0
   -4.1280   -4.2864   -3.7320 H   0  0
   -6.5001   -6.3026   -9.6406 H   0  0
   -7.1418   -8.6982  -10.1079 H   0  0
   -5.0718   -2.6850   -7.5617 H   0  0
   -4.3585   -0.4400   -6.7762 H   0  0
   -3.5664   -0.1236   -4.5731 H   0  0
   -6.0163   -9.7057   -6.1260 H   0  0
   -6.9065  -10.3547   -8.3979 H   0  0
   -5.4084   -7.4347   -5.6840 H   0  0
  1  2  1  0
  2  3  1  0
  3  4  1  0
  4  5  1  0
  1  5  1  0
  4  6  1  0
  4  7  1  0
  8  9  1  0
  9 10  1  0
 10 11  1  0
  5  8  1  0
  8 12  2  0
 10 13  1  0
 10 14  1  0
 15 16  1  0
 16 17  1  0
 19 20  1  0
 20 21  1  0
 21 22  1  0
  1 15  1  0
 25 26  1  0
 26 27  2  0
 27 17  1  0
 18 17  2  0
 19 25  2  0
 18 19  1  0
 21 28  2  0
 29 30  1  0
 29 31  2  0
 30 24  2  0
 24 23  1  0
 22 31  1  0
 23 22  2  0
  1 32  1  0
  2 33  1  0
  2 34  1  0
  6 35  1  0
  6 36  1  0
  6 37  1  0
  7 38  1  0
  7 39  1  0
  7 40  1  0
 11 41  1  0
 11 42  1  0
 11 43  1  0
 13 44  1  0
 13 45  1  0
 13 46  1  0
 14 47  1  0
 14 48  1  0
 14 49  1  0
 15 50  1  0
 15 51  1  0
 18 52  1  0
 23 53  1  0
 24 54  1  0
 25 55  1  0
 26 56  1  0
 27 57  1  0
 29 58  1  0
 30 59  1  0
 31 60  1  0
M  END
> <Name>
DFD2009_17S

> <Clean Energy>
32.698

$$$$
DFD2009_18S
  SciTegic12132405553D

 48 49  0  0  0  0            999 V2000
   -2.9591   -1.2235    0.4983 C   0  0  1  0  0  0
   -1.6892   -1.7932   -0.1369 C   0  0
   -0.7259   -0.8735    0.3806 O   0  0
   -1.3260    0.4173    0.0090 C   0  0
   -2.7655    0.1784    0.1542 N   0  0
   -0.7978    1.5357    0.9261 C   0  0
   -0.9872    0.8462   -1.4547 C   0  0
   -3.7618    1.2012   -0.0484 C   0  0
   -5.1575    0.9319    0.0946 O   0  0
   -6.0904    2.0614   -0.1452 C   0  0
   -7.5185    1.5654    0.0518 C   0  0
   -3.3715    2.3350   -0.3526 O   0  0
   -5.8464    3.2105    0.8639 C   0  0
   -5.9708    2.5831   -1.5984 C   0  0
   -4.2196   -1.9807    0.0262 C   0  0
   -5.4060   -1.4842    0.6502 O   0  0
   -6.6018   -2.1958    0.3000 C   0  0
   -7.7365   -1.8179    0.8852 C   0  0
   -8.9960   -2.4934    0.5825 C   0  0
  -10.1684   -2.0793    1.2024 O   0  0
   -9.0258   -3.5023   -0.2833 C   0  0
   -7.7985   -3.9421   -0.9373 C   0  0
   -6.6420   -3.3373   -0.6743 C   0  0
   -2.8702   -1.3172    1.5889 H   0  0
   -1.5095   -2.8398    0.1439 H   0  0
   -1.7518   -1.7052   -1.2265 H   0  0
   -1.2824    2.4864    0.6668 H   0  0
    0.2886    1.6317    0.7929 H   0  0
   -1.0196    1.2837    1.9725 H   0  0
   -1.4836    1.7996   -1.6795 H   0  0
   -1.3310    0.0844   -2.1669 H   0  0
    0.1000    0.9711   -1.5512 H   0  0
   -8.2192    2.3933   -0.1239 H   0  0
   -7.6371    1.1942    1.0797 H   0  0
   -7.7234    0.7520   -0.6591 H   0  0
   -6.5747    4.0123    0.6789 H   0  0
   -4.8324    3.6100    0.7462 H   0  0
   -5.9734    2.8284    1.8864 H   0  0
   -6.6977    3.3930   -1.7507 H   0  0
   -6.1846    1.7621   -2.2970 H   0  0
   -4.9603    2.9659   -1.7824 H   0  0
   -4.1049   -3.0351    0.3148 H   0  0
   -4.3026   -1.9072   -1.0676 H   0  0
   -7.7255   -1.0165    1.5787 H   0  0
  -10.9222   -2.6375    0.8879 H   0  0
   -9.9435   -3.9884   -0.4984 H   0  0
   -7.8274   -4.7479   -1.6261 H   0  0
   -5.7684   -3.6783   -1.1649 H   0  0
  1  2  1  0
  2  3  1  0
  3  4  1  0
  4  5  1  0
  1  5  1  0
  4  6  1  0
  4  7  1  0
  8  9  1  0
  9 10  1  0
 10 11  1  0
  5  8  1  0
  8 12  2  0
 10 13  1  0
 10 14  1  0
 15 16  1  0
 16 17  1  0
 19 20  1  0
  1 15  1  0
 21 22  1  0
 22 23  2  0
 23 17  1  0
 18 17  2  0
 19 21  2  0
 18 19  1  0
  1 24  1  0
  2 25  1  0
  2 26  1  0
  6 27  1  0
  6 28  1  0
  6 29  1  0
  7 30  1  0
  7 31  1  0
  7 32  1  0
 11 33  1  0
 11 34  1  0
 11 35  1  0
 13 36  1  0
 13 37  1  0
 13 38  1  0
 14 39  1  0
 14 40  1  0
 14 41  1  0
 15 42  1  0
 15 43  1  0
 18 44  1  0
 20 45  1  0
 21 46  1  0
 22 47  1  0
 23 48  1  0
M  END
> <Name>
DFD2009_18S

> <Clean Energy>
31.0976

$$$$
DFD2009_18R
  SciTegic12132405553D

 48 49  0  0  0  0            999 V2000
   -3.2243   -1.0740    0.4582 C   0  0  2  0  0  0
   -1.9920   -1.8286   -0.0441 C   0  0
   -0.9687   -1.0284    0.5775 O   0  0
   -1.3859    0.3385    0.1419 C   0  0
   -2.8405    0.2462    0.1654 N   0  0
   -0.8217    1.4173    1.0861 C   0  0
   -0.8894    0.7164   -1.2871 C   0  0
   -3.7482    1.2856   -0.0716 C   0  0
   -5.1381    0.9831    0.0008 O   0  0
   -6.0917    2.0689   -0.2401 C   0  0
   -7.5037    1.4941   -0.1059 C   0  0
   -3.3296    2.4214   -0.3301 O   0  0
   -5.9260    3.1957    0.8057 C   0  0
   -5.9350    2.6412   -1.6680 C   0  0
   -3.3794   -1.2257    1.9833 C   0  0
   -3.6487   -2.5979    2.2895 O   0  0
   -3.8188   -2.8890    3.6755 C   0  0
   -4.0715   -4.1535    4.0089 C   0  0
   -4.2584   -4.5322    5.4092 C   0  0
   -4.5215   -5.8563    5.7383 O   0  0
   -4.1778   -3.6149    6.3692 C   0  0
   -3.9017   -2.2220    6.0311 C   0  0
   -3.7289   -1.8596    4.7617 C   0  0
   -4.1584   -1.3915   -0.0251 H   0  0
   -1.9931   -2.8907    0.2371 H   0  0
   -1.9208   -1.7313   -1.1314 H   0  0
   -1.1850    2.4058    0.7734 H   0  0
    0.2760    1.4002    1.0434 H   0  0
   -1.1538    1.2113    2.1137 H   0  0
   -1.2676    1.7142   -1.5495 H   0  0
   -1.2511   -0.0115   -2.0250 H   0  0
    0.2091    0.7291   -1.2960 H   0  0
   -8.2393    2.2916   -0.2821 H   0  0
   -7.6370    1.0873    0.9064 H   0  0
   -7.6437    0.6939   -0.8462 H   0  0
   -6.6781    3.9746    0.6181 H   0  0
   -4.9238    3.6353    0.7315 H   0  0
   -6.0709    2.7806    1.8129 H   0  0
   -6.6871    3.4267   -1.8256 H   0  0
   -6.0862    1.8362   -2.4006 H   0  0
   -4.9331    3.0689   -1.7955 H   0  0
   -4.2147   -0.5976    2.3257 H   0  0
   -2.4542   -0.9127    2.4865 H   0  0
   -4.1378   -4.8924    3.2514 H   0  0
   -4.6200   -5.9385    6.7193 H   0  0
   -4.3144   -3.8962    7.3826 H   0  0
   -3.8384   -1.4949    6.8005 H   0  0
   -3.5298   -0.8425    4.5457 H   0  0
  1  2  1  0
  2  3  1  0
  3  4  1  0
  4  5  1  0
  1  5  1  0
  4  6  1  0
  4  7  1  0
  8  9  1  0
  9 10  1  0
 10 11  1  0
  5  8  1  0
  8 12  2  0
 10 13  1  0
 10 14  1  0
 15 16  1  0
 16 17  1  0
 19 20  1  0
  1 15  1  0
 21 22  1  0
 22 23  2  0
 23 17  1  0
 18 17  2  0
 19 21  2  0
 18 19  1  0
  1 24  1  0
  2 25  1  0
  2 26  1  0
  6 27  1  0
  6 28  1  0
  6 29  1  0
  7 30  1  0
  7 31  1  0
  7 32  1  0
 11 33  1  0
 11 34  1  0
 11 35  1  0
 13 36  1  0
 13 37  1  0
 13 38  1  0
 14 39  1  0
 14 40  1  0
 14 41  1  0
 15 42  1  0
 15 43  1  0
 18 44  1  0
 20 45  1  0
 21 46  1  0
 22 47  1  0
 23 48  1  0
M  END
> <Name>
DFD2009_18R

> <Clean Energy>
29.2219

$$$$
DFD2009_19R
  SciTegic12132405553D

 79 82  0  0  0  0            999 V2000
   -1.8905   -1.4412   -0.8901 C   0  0  2  0  0  0
   -0.5903   -2.1905   -0.5916 C   0  0
    0.3006   -1.4845   -1.4572 O   0  0
    0.0444   -0.0899   -1.0647 C   0  0
   -1.3911   -0.0787   -0.7644 N   0  0
    0.4364    0.8669   -2.2056 C   0  0
    0.8690    0.3508    0.1872 C   0  0
   -2.1120    1.1134   -0.3912 C   0  0
   -3.5102    1.0877   -0.0982 O   0  0
   -4.1433    2.3759    0.2813 C   0  0
   -5.6230    2.1309    0.5556 C   0  0
   -1.4800    2.1751   -0.3316 O   0  0
   -3.5138    2.9450    1.5766 C   0  0
   -4.0412    3.4080   -0.8687 C   0  0
   -3.0493   -1.9372    0.0021 C   0  0
   -4.2793   -1.2744   -0.3011 O   0  0
   -5.4064   -1.7395    0.4566 C   0  0
   -6.5926   -1.1992    0.1875 C   0  0
   -7.7973   -1.6094    0.9103 C   0  0
   -9.0290   -0.9726    0.5586 O   0  0
   -7.7075   -2.5495    1.8575 C   0  0
   -6.4208   -3.1612    2.1675 C   0  0
   -5.3220   -2.7919    1.5161 C   0  0
  -10.3051   -1.4255    1.3560 P   0  0
  -10.6064   -2.9613    1.1008 O   0  0
  -11.5007   -0.5458    0.9150 O   0  0
  -12.6224   -0.7629    1.7793 C   0  0
  -13.7756    0.0474    1.2944 C   0  0
  -15.1362   -0.4488    1.4749 C   0  0
  -16.1684    0.2632    1.0289 C   0  0
  -15.9379    1.5441    0.3588 C   0  0
  -14.6958    1.9954    0.1951 C   0  0
  -13.5632    1.2109    0.6839 C   0  0
  -10.6389   -3.3454   -0.3164 C   0  0
  -11.7744   -2.6895   -1.0445 C   0  0
  -11.5379   -1.6844   -1.8856 C   0  0
  -12.6495   -1.0410   -2.5858 C   0  0
  -13.8966   -1.4635   -2.3859 C   0  0
  -14.1548   -2.5739   -1.4683 C   0  0
  -13.1433   -3.1585   -0.8303 C   0  0
  -10.1119   -1.2053    2.7057 O   0  0
   -2.1499   -1.6083   -1.9441 H   0  0
   -0.3076   -2.0339    0.4545 H   0  0
   -0.6651   -3.2661   -0.8016 H   0  0
    0.2033    1.9007   -1.9179 H   0  0
   -0.1254    0.6022   -3.1122 H   0  0
    1.5140    0.7767   -2.4009 H   0  0
    0.6147    1.3875    0.4450 H   0  0
    1.9406    0.2869   -0.0463 H   0  0
    0.6435   -0.2989    1.0432 H   0  0
   -6.1027    3.0780    0.8385 H   0  0
   -5.7268    1.4059    1.3757 H   0  0
   -6.1008    1.7321   -0.3506 H   0  0
   -4.0281    3.8778    1.8467 H   0  0
   -2.4486    3.1522    1.4218 H   0  0
   -3.6307    2.2134    2.3883 H   0  0
   -4.5484    4.3348   -0.5663 H   0  0
   -4.5269    3.0003   -1.7662 H   0  0
   -2.9902    3.6274   -1.0896 H   0  0
   -2.7851   -1.7897    1.0590 H   0  0
   -3.1890   -3.0095   -0.1945 H   0  0
   -6.6657   -0.4555   -0.5640 H   0  0
   -8.5638   -2.8612    2.3897 H   0  0
   -6.3606   -3.9067    2.9191 H   0  0
   -4.4040   -3.2553    1.7665 H   0  0
  -12.3510   -0.4282    2.7891 H   0  0
  -12.9076   -1.8231    1.8259 H   0  0
  -15.3007   -1.3777    1.9587 H   0  0
  -17.1570   -0.0975    1.1585 H   0  0
  -16.7597    2.1123    0.0035 H   0  0
  -14.5281    2.9228   -0.2909 H   0  0
  -12.5739    1.5672    0.5487 H   0  0
   -9.6800   -3.0782   -0.7816 H   0  0
  -10.8030   -4.4314   -0.3318 H   0  0
  -10.5447   -1.3462   -2.0398 H   0  0
  -12.4627   -0.2367   -3.2506 H   0  0
  -14.7024   -0.9957   -2.8918 H   0  0
  -15.1473   -2.9111   -1.3099 H   0  0
  -13.3292   -3.9609   -0.1632 H   0  0
  1  2  1  0
  2  3  1  0
  3  4  1  0
  4  5  1  0
  1  5  1  0
  4  6  1  0
  4  7  1  0
  8  9  1  0
  9 10  1  0
 10 11  1  0
  5  8  1  0
  8 12  2  0
 10 13  1  0
 10 14  1  0
 15 16  1  0
 16 17  1  0
 19 20  1  0
  1 15  1  0
 21 22  1  0
 22 23  2  0
 23 17  1  0
 18 17  2  0
 19 21  2  0
 18 19  1  0
 20 24  1  0
 24 25  1  0
 24 26  1  0
 27 28  1  0
 26 27  1  0
 30 31  1  0
 31 32  2  0
 32 33  1  0
 28 33  2  0
 29 30  2  0
 28 29  1  0
 25 34  1  0
 34 35  1  0
 36 37  1  0
 37 38  2  0
 38 39  1  0
 39 40  2  0
 35 36  2  0
 35 40  1  0
 24 41  2  0
  1 42  1  0
  2 43  1  0
  2 44  1  0
  6 45  1  0
  6 46  1  0
  6 47  1  0
  7 48  1  0
  7 49  1  0
  7 50  1  0
 11 51  1  0
 11 52  1  0
 11 53  1  0
 13 54  1  0
 13 55  1  0
 13 56  1  0
 14 57  1  0
 14 58  1  0
 14 59  1  0
 15 60  1  0
 15 61  1  0
 18 62  1  0
 21 63  1  0
 22 64  1  0
 23 65  1  0
 27 66  1  0
 27 67  1  0
 29 68  1  0
 30 69  1  0
 31 70  1  0
 32 71  1  0
 33 72  1  0
 34 73  1  0
 34 74  1  0
 36 75  1  0
 37 76  1  0
 38 77  1  0
 39 78  1  0
 40 79  1  0
M  END
> <Name>
DFD2009_19R

> <Clean Energy>
49.3048

$$$$
DFD2009_19S
  SciTegic12132405553D

 79 82  0  0  0  0            999 V2000
   -1.9156   -1.6746   -1.0333 C   0  0  1  0  0  0
   -1.6318   -0.1814   -0.8578 C   0  0
   -1.0551   -0.2139    0.4607 O   0  0
   -0.0218   -1.2790    0.2825 C   0  0
   -0.6833   -2.2110   -0.6221 N   0  0
    0.3669   -1.9041    1.6360 C   0  0
    1.3072   -0.7621   -0.3486 C   0  0
   -0.2014   -3.4578   -1.0392 C   0  0
   -1.0189   -4.2241   -1.9186 O   0  0
   -0.5290   -5.5368   -2.3454 C   0  0
   -1.5788   -6.1519   -3.2737 C   0  0
    0.8963   -3.8612   -0.6340 O   0  0
    0.7970   -5.4089   -3.1297 C   0  0
   -0.3420   -6.4795   -1.1341 C   0  0
   -3.0130   -2.1523   -0.0648 C   0  0
   -4.2497   -1.5167   -0.4059 O   0  0
   -5.3654   -1.8879    0.4034 C   0  0
   -6.5391   -1.3250    0.1229 C   0  0
   -7.7402   -1.6515    0.8967 C   0  0
   -8.9638   -1.0071    0.5270 O   0  0
   -7.6552   -2.5301    1.9025 C   0  0
   -6.3790   -3.1563    2.2286 C   0  0
   -5.2854   -2.8650    1.5309 C   0  0
  -10.2363   -1.3861    1.3686 P   0  0
  -10.5742   -2.9259    1.1976 O   0  0
  -11.4246   -0.5101    0.9009 O   0  0
  -12.5374   -0.6789    1.7879 C   0  0
  -13.6890    0.1201    1.2829 C   0  0
  -15.0485   -0.3820    1.4556 C   0  0
  -16.0803    0.3193    0.9924 C   0  0
  -15.8505    1.5944    0.3113 C   0  0
  -14.6093    2.0511    0.1548 C   0  0
  -13.4769    1.2780    0.6626 C   0  0
  -10.6200   -3.3842   -0.1986 C   0  0
  -11.7317   -2.7295   -0.9640 C   0  0
  -11.4606   -1.7661   -1.8428 C   0  0
  -12.5477   -1.1222   -2.5797 C   0  0
  -13.8073   -1.5030   -2.3757 C   0  0
  -14.1038   -2.5681   -1.4167 C   0  0
  -13.1144   -3.1529   -0.7451 C   0  0
  -10.0186   -1.0989    2.7019 O   0  0
   -2.2082   -1.9457   -2.0569 H   0  0
   -0.8725    0.1342   -1.5792 H   0  0
   -2.5296    0.4431   -0.9630 H   0  0
    1.0876   -2.7170    1.4721 H   0  0
   -0.5335   -2.3034    2.1244 H   0  0
    0.8220   -1.1346    2.2748 H   0  0
    1.9966   -1.6073   -0.4824 H   0  0
    1.7629   -0.0228    0.3242 H   0  0
    1.1144   -0.2967   -1.3240 H   0  0
   -1.2343   -7.1407   -3.6077 H   0  0
   -1.7227   -5.4983   -4.1455 H   0  0
   -2.5288   -6.2568   -2.7310 H   0  0
    1.1155   -6.4064   -3.4634 H   0  0
    1.5748   -4.9767   -2.4883 H   0  0
    0.6410   -4.7619   -4.0041 H   0  0
   -0.0097   -7.4640   -1.4917 H   0  0
   -1.2996   -6.5853   -0.6050 H   0  0
    0.4111   -6.0701   -0.4497 H   0  0
   -2.7407   -1.8945    0.9681 H   0  0
   -3.1202   -3.2431   -0.1554 H   0  0
   -6.6064   -0.6312   -0.6760 H   0  0
   -8.5079   -2.7821    2.4706 H   0  0
   -6.3230   -3.8503    3.0283 H   0  0
   -4.3747   -3.3372    1.7925 H   0  0
  -12.2469   -0.3011    2.7769 H   0  0
  -12.8303   -1.7339    1.8829 H   0  0
  -15.2125   -1.3068    1.9474 H   0  0
  -17.0681   -0.0458    1.1163 H   0  0
  -16.6720    2.1542   -0.0576 H   0  0
  -14.4422    2.9743   -0.3391 H   0  0
  -12.4881    1.6380    0.5333 H   0  0
   -9.6529   -3.1716   -0.6747 H   0  0
  -10.8182   -4.4639   -0.1578 H   0  0
  -10.4572   -1.4608   -2.0003 H   0  0
  -12.3330   -0.3507   -3.2744 H   0  0
  -14.5956   -1.0349   -2.9083 H   0  0
  -15.1064   -2.8722   -1.2552 H   0  0
  -13.3279   -3.9222   -0.0482 H   0  0
  1  2  1  0
  2  3  1  0
  3  4  1  0
  4  5  1  0
  1  5  1  0
  4  6  1  0
  4  7  1  0
  8  9  1  0
  9 10  1  0
 10 11  1  0
  5  8  1  0
  8 12  2  0
 10 13  1  0
 10 14  1  0
 15 16  1  0
 16 17  1  0
 19 20  1  0
  1 15  1  0
 21 22  1  0
 22 23  2  0
 23 17  1  0
 18 17  2  0
 19 21  2  0
 18 19  1  0
 20 24  1  0
 24 25  1  0
 24 26  1  0
 27 28  1  0
 26 27  1  0
 30 31  1  0
 31 32  2  0
 32 33  1  0
 28 33  2  0
 29 30  2  0
 28 29  1  0
 25 34  1  0
 34 35  1  0
 36 37  1  0
 37 38  2  0
 38 39  1  0
 39 40  2  0
 35 36  2  0
 35 40  1  0
 24 41  2  0
  1 42  1  0
  2 43  1  0
  2 44  1  0
  6 45  1  0
  6 46  1  0
  6 47  1  0
  7 48  1  0
  7 49  1  0
  7 50  1  0
 11 51  1  0
 11 52  1  0
 11 53  1  0
 13 54  1  0
 13 55  1  0
 13 56  1  0
 14 57  1  0
 14 58  1  0
 14 59  1  0
 15 60  1  0
 15 61  1  0
 18 62  1  0
 21 63  1  0
 22 64  1  0
 23 65  1  0
 27 66  1  0
 27 67  1  0
 29 68  1  0
 30 69  1  0
 31 70  1  0
 32 71  1  0
 33 72  1  0
 34 73  1  0
 34 74  1  0
 36 75  1  0
 37 76  1  0
 38 77  1  0
 39 78  1  0
 40 79  1  0
M  END
> <Name>
DFD2009_19S

> <Clean Energy>
47.5045

$$$$
DFD2009_20S
  SciTegic12132405553D

 53 54  0  0  0  0            999 V2000
   -2.6175   -1.1638    0.4980 C   0  0  1  0  0  0
   -1.3610   -1.8164   -0.0820 C   0  0
   -0.3658   -0.9368    0.4441 O   0  0
   -0.8834    0.3744    0.0225 C   0  0
   -2.3376    0.2167    0.1281 N   0  0
   -0.4781    0.7470   -1.4397 C   0  0
   -0.3228    1.4862    0.9285 C   0  0
   -3.2702    1.2866   -0.1273 C   0  0
   -4.6822    1.0972   -0.0185 O   0  0
   -5.5443    2.2703   -0.3100 C   0  0
   -5.3563    2.7499   -1.7703 C   0  0
   -2.8098    2.3900   -0.4452 O   0  0
   -5.2646    3.4279    0.6800 C   0  0
   -7.0028    1.8583   -0.1429 C   0  0
   -3.9009   -1.8647    0.0014 C   0  0
   -5.0791   -1.2910    0.5725 O   0  0
   -6.3000   -1.9461    0.1967 C   0  0
   -7.4303   -1.4928    0.7335 C   0  0
   -8.7240   -2.0979    0.4100 C   0  0
   -9.8832   -1.5433    1.0285 O   0  0
   -8.7720   -3.1306   -0.4393 C   0  0
   -7.5466   -3.6490   -1.0373 C   0  0
   -6.3691   -3.1028   -0.7488 C   0  0
  -11.2498   -2.2121    0.6566 P   0  0
  -11.5165   -2.0823   -0.8676 O   0  0
  -12.3805   -1.4819    1.4215 O   0  0
  -11.2508   -3.5424    1.0288 O   0  0
   -2.5686   -1.2348    1.5929 H   0  0
   -1.2471   -2.8637    0.2290 H   0  0
   -1.3849   -1.7528   -1.1748 H   0  0
   -0.9152    1.7195   -1.7027 H   0  0
   -0.8413   -0.0133   -2.1439 H   0  0
    0.6166    0.8110   -1.5052 H   0  0
   -0.7468    2.4545    0.6313 H   0  0
    0.7708    1.5201    0.8271 H   0  0
   -0.5892    1.2735    1.9733 H   0  0
   -6.0327    3.5947   -1.9613 H   0  0
   -5.5961    1.9256   -2.4564 H   0  0
   -4.3214    3.0723   -1.9339 H   0  0
   -5.9421    4.2638    0.4565 H   0  0
   -4.2272    3.7683    0.5826 H   0  0
   -5.4406    3.0777    1.7066 H   0  0
   -7.6512    2.7191   -0.3569 H   0  0
   -7.1699    1.5186    0.8891 H   0  0
   -7.2331    1.0408   -0.8412 H   0  0
   -3.8524   -2.9161    0.3179 H   0  0
   -3.9438   -1.8139   -1.0960 H   0  0
   -7.3931   -0.6764    1.4082 H   0  0
   -9.6922   -3.5831   -0.6872 H   0  0
   -7.5953   -4.4686   -1.7084 H   0  0
   -5.4999   -3.5029   -1.2010 H   0  0
  -11.5233   -1.1260   -1.1199 H   0  0
  -12.2211   -1.5574    2.3951 H   0  0
  1  2  1  0
  2  3  1  0
  3  4  1  0
  4  5  1  0
  1  5  1  0
  4  6  1  0
  4  7  1  0
  8  9  1  0
  9 10  1  0
 10 11  1  0
  5  8  1  0
  8 12  2  0
 10 13  1  0
 10 14  1  0
 15 16  1  0
 16 17  1  0
 19 20  1  0
  1 15  1  0
 21 22  1  0
 22 23  2  0
 23 17  1  0
 18 17  2  0
 19 21  2  0
 18 19  1  0
 20 24  1  0
 24 25  1  0
 24 26  1  0
 24 27  2  0
  1 28  1  0
  2 29  1  0
  2 30  1  0
  6 31  1  0
  6 32  1  0
  6 33  1  0
  7 34  1  0
  7 35  1  0
  7 36  1  0
 11 37  1  0
 11 38  1  0
 11 39  1  0
 13 40  1  0
 13 41  1  0
 13 42  1  0
 14 43  1  0
 14 44  1  0
 14 45  1  0
 15 46  1  0
 15 47  1  0
 18 48  1  0
 21 49  1  0
 22 50  1  0
 23 51  1  0
 25 52  1  0
 26 53  1  0
M  END
> <Name>
DFD2009_20S

> <Clean Energy>
32.3470001220703

$$$$
DFD2009_20R
  SciTegic12132405553D

 53 54  0  0  0  0            999 V2000
   -2.8932   -1.0060    0.4694 C   0  0  2  0  0  0
   -1.6932   -1.8520    0.0395 C   0  0
   -0.6453   -1.0970    0.6765 O   0  0
   -0.9584    0.2782    0.1833 C   0  0
   -2.4157    0.2775    0.1526 N   0  0
   -0.3861    0.5775   -1.2360 C   0  0
   -0.3622    1.3502    1.1156 C   0  0
   -3.2464    1.3633   -0.1493 C   0  0
   -4.6543    1.1501   -0.1205 O   0  0
   -5.5283    2.2849   -0.4280 C   0  0
   -5.2851    2.8018   -1.8648 C   0  0
   -2.7477    2.4621   -0.4246 O   0  0
   -5.3290    3.4309    0.5906 C   0  0
   -6.9775    1.8031   -0.3303 C   0  0
   -3.1158   -1.0971    1.9909 C   0  0
   -3.4841   -2.4387    2.3282 O   0  0
   -3.7276   -2.6729    3.7145 C   0  0
   -4.0738   -3.9072    4.0737 C   0  0
   -4.3443   -4.2421    5.4752 C   0  0
   -4.7095   -5.5885    5.7726 O   0  0
   -4.2412   -3.2894    6.4096 C   0  0
   -3.8625   -1.9296    6.0371 C   0  0
   -3.6159   -1.6198    4.7676 C   0  0
   -4.9892   -5.9105    7.2798 P   0  0
   -3.7172   -5.6513    8.1319 O   0  0
   -5.3714   -7.4057    7.4020 O   0  0
   -6.0399   -5.1453    7.7475 O   0  0
   -3.8266   -1.2803   -0.0409 H   0  0
   -1.7722   -2.9021    0.3526 H   0  0
   -1.5751   -1.7951   -1.0465 H   0  0
   -0.6903    1.5878   -1.5431 H   0  0
   -0.7657   -0.1503   -1.9651 H   0  0
    0.7106    0.5215   -1.2023 H   0  0
   -0.6501    2.3486    0.7589 H   0  0
    0.7330    1.2633    1.1164 H   0  0
   -0.7447    1.1991    2.1352 H   0  0
   -5.9800    3.6273   -2.0729 H   0  0
   -5.4606    1.9855   -2.5792 H   0  0
   -4.2543    3.1625   -1.9669 H   0  0
   -6.0233    4.2489    0.3528 H   0  0
   -4.2991    3.8050    0.5415 H   0  0
   -5.5356    3.0569    1.6031 H   0  0
   -7.6547    2.6388   -0.5566 H   0  0
   -7.1722    1.4368    0.6876 H   0  0
   -7.1414    0.9906   -1.0520 H   0  0
   -3.9220   -0.4070    2.2795 H   0  0
   -2.1926   -0.8259    2.5212 H   0  0
   -4.1554   -4.6612    3.3328 H   0  0
   -4.4313   -3.5064    7.4244 H   0  0
   -3.7834   -1.1823    6.7852 H   0  0
   -3.3435   -0.6247    4.5302 H   0  0
   -2.9756   -6.2118    7.7943 H   0  0
   -6.1815   -7.5833    6.8622 H   0  0
  1  2  1  0
  2  3  1  0
  3  4  1  0
  4  5  1  0
  1  5  1  0
  4  6  1  0
  4  7  1  0
  8  9  1  0
  9 10  1  0
 10 11  1  0
  5  8  1  0
  8 12  2  0
 10 13  1  0
 10 14  1  0
 15 16  1  0
 16 17  1  0
 19 20  1  0
  1 15  1  0
 21 22  1  0
 22 23  2  0
 23 17  1  0
 18 17  2  0
 19 21  2  0
 18 19  1  0
 20 24  1  0
 24 25  1  0
 24 26  1  0
 24 27  2  0
  1 28  1  0
  2 29  1  0
  2 30  1  0
  6 31  1  0
  6 32  1  0
  6 33  1  0
  7 34  1  0
  7 35  1  0
  7 36  1  0
 11 37  1  0
 11 38  1  0
 11 39  1  0
 13 40  1  0
 13 41  1  0
 13 42  1  0
 14 43  1  0
 14 44  1  0
 14 45  1  0
 15 46  1  0
 15 47  1  0
 18 48  1  0
 21 49  1  0
 22 50  1  0
 23 51  1  0
 25 52  1  0
 26 53  1  0
M  END
> <Name>
DFD2009_20R

> <Clean Energy>
30.5020790100098

$$$$
DFD2009_21S
  SciTegic12132405553D

 49 50  0  0  0  0            999 V2000
   -3.0343   -0.6923    1.3409 C   0  0  1  0  0  0
   -1.5893   -1.1616    1.5236 C   0  0
   -1.2322   -1.3453    0.1429 O   0  0
   -1.6509   -0.0278   -0.4276 C   0  0
   -2.8556    0.2763    0.3331 N   0  0
   -1.8924   -0.1381   -1.9454 C   0  0
   -0.5932    1.1021   -0.2415 C   0  0
   -3.7429    1.3389    0.1085 C   0  0
   -4.9031    1.4096    0.9305 O   0  0
   -5.8698    2.4736    0.6722 C   0  0
   -6.4577    2.3508   -0.7524 C   0  0
   -3.5238    2.1473   -0.8027 O   0  0
   -5.2319    3.8675    0.8683 C   0  0
   -7.0149    2.3185    1.6743 C   0  0
   -3.9354   -1.8154    0.7897 C   0  0
   -5.2306   -1.2574    0.5365 O   0  0
   -6.2033   -2.1432    0.0129 C   0  0
   -7.4110   -1.6397   -0.2291 C   0  0
   -8.4836   -2.4762   -0.7721 C   0  0
   -8.2435   -3.7657   -1.0278 C   0  0
   -6.9239   -4.3380   -0.7691 C   0  0
   -5.9464   -3.5825   -0.2762 C   0  0
   -9.7553   -1.8645   -1.0066 N   0  3
   -9.8757   -0.7229   -0.7531 O   0  0
  -10.8252   -2.5230   -1.5026 O   0  5
   -3.4855   -0.3064    2.2652 H   0  0
   -0.9919   -0.3490    1.9469 H   0  0
   -1.5033   -2.0560    2.1554 H   0  0
   -2.2487    0.8262   -2.3324 H   0  0
   -2.6477   -0.9137   -2.1380 H   0  0
   -0.9516   -0.4078   -2.4447 H   0  0
   -0.9917    2.0408   -0.6512 H   0  0
    0.3248    0.8297   -0.7800 H   0  0
   -0.3632    1.2425    0.8227 H   0  0
   -7.2076    3.1398   -0.9020 H   0  0
   -6.9335    1.3654   -0.8647 H   0  0
   -5.6626    2.4608   -1.4999 H   0  0
   -5.9953    4.6399    0.6999 H   0  0
   -4.4099    4.0097    0.1559 H   0  0
   -4.8467    3.9499    1.8942 H   0  0
   -7.7607    3.1065    1.4995 H   0  0
   -6.6200    2.4050    2.6962 H   0  0
   -7.4829    1.3314    1.5415 H   0  0
   -4.0133   -2.6212    1.5325 H   0  0
   -3.5119   -2.2136   -0.1428 H   0  0
   -7.5979   -0.6147   -0.0249 H   0  0
   -9.0068   -4.3814   -1.4195 H   0  0
   -6.7444   -5.3624   -0.9759 H   0  0
   -4.9999   -4.0225   -0.0985 H   0  0
  1  2  1  0
  2  3  1  0
  3  4  1  0
  4  5  1  0
  1  5  1  0
  4  6  1  0
  4  7  1  0
  8  9  1  0
  9 10  1  0
 10 11  1  0
  5  8  1  0
  8 12  2  0
 10 13  1  0
 10 14  1  0
 15 16  1  0
 16 17  1  0
  1 15  1  0
 20 21  1  0
 21 22  2  0
 22 17  1  0
 18 17  2  0
 19 20  2  0
 18 19  1  0
 19 23  1  0
 23 24  2  0
 23 25  1  0
  1 26  1  0
  2 27  1  0
  2 28  1  0
  6 29  1  0
  6 30  1  0
  6 31  1  0
  7 32  1  0
  7 33  1  0
  7 34  1  0
 11 35  1  0
 11 36  1  0
 11 37  1  0
 13 38  1  0
 13 39  1  0
 13 40  1  0
 14 41  1  0
 14 42  1  0
 14 43  1  0
 15 44  1  0
 15 45  1  0
 18 46  1  0
 20 47  1  0
 21 48  1  0
 22 49  1  0
M  CHG  2  23   1  25  -1
M  END
> <Name>
DFD2009_21S

> <Clean Energy>
28.8851

$$$$
DFD2009_21R
  SciTegic12132405553D

 49 50  0  0  0  0            999 V2000
   -2.9278   -0.6267    1.4737 C   0  0  2  0  0  0
   -1.4498   -1.0038    1.5861 C   0  0
   -1.1679   -1.2726    0.2090 O   0  0
   -1.6794   -0.0391   -0.4344 C   0  0
   -2.8532    0.2899    0.3663 N   0  0
   -2.0051   -0.3009   -1.9151 C   0  0
   -0.6594    1.1410   -0.4109 C   0  0
   -3.7756    1.3494    0.0708 C   0  0
   -4.9196    1.5470    0.8986 O   0  0
   -5.8437    2.6321    0.5690 C   0  0
   -6.4764    2.4227   -0.8260 C   0  0
   -3.5712    2.0633   -0.9191 O   0  0
   -5.1340    4.0038    0.6312 C   0  0
   -6.9637    2.6236    1.6119 C   0  0
   -3.5090   -0.1168    2.8034 C   0  0
   -3.4270   -1.1538    3.7851 O   0  0
   -3.9425   -0.8091    5.0711 C   0  0
   -3.8854   -1.7397    6.0216 C   0  0
   -4.3915   -1.4745    7.3729 C   0  0
   -4.9188   -0.2793    7.6537 C   0  0
   -4.9926    0.7563    6.6275 C   0  0
   -4.5359    0.5242    5.4002 C   0  0
   -4.2959   -2.5233    8.3422 N   0  3
   -3.8175   -3.5438    8.0087 O   0  0
   -4.7238   -2.4081    9.6184 O   0  5
   -3.4962   -1.5047    1.1389 H   0  0
   -0.8755   -0.1341    1.9197 H   0  0
   -1.2756   -1.8490    2.2661 H   0  0
   -2.4260    0.6074   -2.3668 H   0  0
   -2.7345   -1.1197   -1.9884 H   0  0
   -1.0842   -0.5797   -2.4458 H   0  0
   -1.1173    2.0254   -0.8748 H   0  0
    0.2368    0.8549   -0.9784 H   0  0
   -0.3751    1.3824    0.6219 H   0  0
   -7.1899    3.2347   -1.0236 H   0  0
   -7.0033    1.4585   -0.8450 H   0  0
   -5.6974    2.4295   -1.5982 H   0  0
   -5.8635    4.7970    0.4161 H   0  0
   -4.3262    4.0445   -0.1098 H   0  0
   -4.7170    4.1516    1.6372 H   0  0
   -7.6744    3.4319    1.3894 H   0  0
   -6.5321    2.7768    2.6116 H   0  0
   -7.4843    1.6562    1.5800 H   0  0
   -4.5590    0.1681    2.6603 H   0  0
   -2.9307    0.7558    3.1390 H   0  0
   -3.4667   -2.6876    5.7969 H   0  0
   -5.2869   -0.0748    8.6220 H   0  0
   -5.4136    1.7008    6.8622 H   0  0
   -4.6040    1.2958    4.6775 H   0  0
  1  2  1  0
  2  3  1  0
  3  4  1  0
  4  5  1  0
  1  5  1  0
  4  6  1  0
  4  7  1  0
  8  9  1  0
  9 10  1  0
 10 11  1  0
  5  8  1  0
  8 12  2  0
 10 13  1  0
 10 14  1  0
 15 16  1  0
 16 17  1  0
  1 15  1  0
 20 21  1  0
 21 22  2  0
 22 17  1  0
 18 17  2  0
 19 20  2  0
 18 19  1  0
 19 23  1  0
 23 24  2  0
 23 25  1  0
  1 26  1  0
  2 27  1  0
  2 28  1  0
  6 29  1  0
  6 30  1  0
  6 31  1  0
  7 32  1  0
  7 33  1  0
  7 34  1  0
 11 35  1  0
 11 36  1  0
 11 37  1  0
 13 38  1  0
 13 39  1  0
 13 40  1  0
 14 41  1  0
 14 42  1  0
 14 43  1  0
 15 44  1  0
 15 45  1  0
 18 46  1  0
 20 47  1  0
 21 48  1  0
 22 49  1  0
M  CHG  2  23   1  25  -1
M  END
> <Name>
DFD2009_21R

> <Clean Energy>
31.5487

$$$$
DFD2009_22R
  SciTegic12132405553D

 80 83  0  0  0  0            999 V2000
   -1.6326   -0.3110   -0.8215 C   0  0  2  0  0  0
   -0.2071   -0.7320   -0.4593 C   0  0
    0.5284    0.2612   -1.1762 O   0  0
   -0.1120    1.4978   -0.7014 C   0  0
   -1.5182    1.1136   -0.5407 N   0  0
    0.0975    2.6329   -1.7205 C   0  0
    0.4753    2.0047    0.6547 C   0  0
   -2.5518    2.0400   -0.1467 C   0  0
   -3.9129    1.6311    0.0067 O   0  0
   -4.8871    2.6724    0.4220 C   0  0
   -6.2683    2.0345    0.5323 C   0  0
   -2.2256    3.2158    0.0567 O   0  0
   -4.5248    3.2504    1.8122 C   0  0
   -4.9739    3.8059   -0.6296 C   0  0
   -2.6832   -1.1727   -0.0885 C   0  0
   -4.0161   -0.8136   -0.4563 O   0  0
   -5.0362   -1.6240    0.1436 C   0  0
   -6.2981   -1.3716   -0.1948 C   0  0
   -7.3995   -2.1465    0.3683 C   0  0
   -7.1466   -3.1304    1.2337 C   0  0
   -5.7735   -3.4331    1.6185 C   0  0
   -4.7615   -2.7320    1.1138 C   0  0
   -8.7151   -1.8264   -0.0261 N   0  0
   -9.9511   -2.6083    0.5323 P   0  0
   -9.8259   -4.0962    0.1414 O   0  0
   -9.9922   -2.5007    1.9082 O   0  0
  -11.2626   -2.0387   -0.0604 O   0  0
  -10.9376   -4.8159    0.6614 C   0  0
  -10.7731   -6.2606    0.3380 C   0  0
  -11.8237   -6.9837   -0.0409 C   0  0
  -11.6570   -8.4026   -0.3581 C   0  0
  -10.4542   -8.9677   -0.2674 C   0  0
   -9.2993   -8.1687    0.1497 C   0  0
   -9.4528   -6.8782    0.4381 C   0  0
  -11.4407   -0.6872    0.3629 C   0  0
  -12.7291   -0.1605   -0.1724 C   0  0
  -12.8413    1.1273   -0.4876 C   0  0
  -14.1058    1.6431   -1.0132 C   0  0
  -15.1427    0.8231   -1.1758 C   0  0
  -15.0167   -0.5943   -0.8284 C   0  0
  -13.8657   -1.0622   -0.3501 C   0  0
   -1.7620   -0.4302   -1.9056 H   0  0
   -0.0520   -0.6157    0.6184 H   0  0
    0.0177   -1.7642   -0.7601 H   0  0
   -0.4185    3.5390   -1.3762 H   0  0
   -0.3082    2.3269   -2.6950 H   0  0
    1.1722    2.8397   -1.8178 H   0  0
   -0.0597    2.9112    0.9678 H   0  0
    1.5403    2.2392    0.5212 H   0  0
    0.3662    1.2359    1.4312 H   0  0
   -6.9979    2.7962    0.8400 H   0  0
   -6.2393    1.2288    1.2800 H   0  0
   -6.5579    1.6201   -0.4438 H   0  0
   -5.2832    3.9907    2.1026 H   0  0
   -3.5423    3.7351    1.7775 H   0  0
   -4.5059    2.4359    2.5497 H   0  0
   -5.7261    4.5391   -0.3068 H   0  0
   -5.2690    3.3800   -1.5986 H   0  0
   -4.0033    4.3054   -0.7301 H   0  0
   -2.5453   -1.0726    0.9977 H   0  0
   -2.5235   -2.2195   -0.3832 H   0  0
   -6.5074   -0.5937   -0.8833 H   0  0
   -7.9387   -3.6982    1.6463 H   0  0
   -5.5800   -4.2171    2.3057 H   0  0
   -3.7760   -2.9753    1.4137 H   0  0
   -8.8533   -1.0962   -0.6864 H   0  0
  -11.8946   -4.4361    0.2758 H   0  0
  -10.9131   -4.7023    1.7535 H   0  0
  -12.7803   -6.5317   -0.1127 H   0  0
  -12.4932   -8.9805   -0.6600 H   0  0
  -10.3327   -9.9958   -0.4972 H   0  0
   -8.3414   -8.6180    0.2219 H   0  0
   -8.6172   -6.2972    0.7404 H   0  0
  -10.6063   -0.0413    0.0556 H   0  0
  -11.4990   -0.6852    1.4597 H   0  0
  -12.0145    1.7785   -0.3577 H   0  0
  -14.1966    2.6693   -1.2646 H   0  0
  -16.0593    1.1964   -1.5567 H   0  0
  -15.8420   -1.2476   -0.9577 H   0  0
  -13.7731   -2.0886   -0.0980 H   0  0
  1  2  1  0
  2  3  1  0
  3  4  1  0
  4  5  1  0
  1  5  1  0
  4  6  1  0
  4  7  1  0
  8  9  1  0
  9 10  1  0
 10 11  1  0
  5  8  1  0
  8 12  2  0
 10 13  1  0
 10 14  1  0
 15 16  1  0
 16 17  1  0
  1 15  1  0
 20 21  1  0
 21 22  2  0
 22 17  1  0
 18 17  2  0
 19 20  2  0
 18 19  1  0
 19 23  1  0
 23 24  1  0
 24 25  1  0
 24 26  2  0
 24 27  1  0
 28 29  1  0
 25 28  1  0
 30 31  1  0
 31 32  2  0
 32 33  1  0
 33 34  2  0
 29 30  2  0
 29 34  1  0
 35 36  1  0
 27 35  1  0
 37 38  1  0
 38 39  2  0
 39 40  1  0
 40 41  2  0
 36 37  2  0
 36 41  1  0
  1 42  1  0
  2 43  1  0
  2 44  1  0
  6 45  1  0
  6 46  1  0
  6 47  1  0
  7 48  1  0
  7 49  1  0
  7 50  1  0
 11 51  1  0
 11 52  1  0
 11 53  1  0
 13 54  1  0
 13 55  1  0
 13 56  1  0
 14 57  1  0
 14 58  1  0
 14 59  1  0
 15 60  1  0
 15 61  1  0
 18 62  1  0
 20 63  1  0
 21 64  1  0
 22 65  1  0
 23 66  1  0
 28 67  1  0
 28 68  1  0
 30 69  1  0
 31 70  1  0
 32 71  1  0
 33 72  1  0
 34 73  1  0
 35 74  1  0
 35 75  1  0
 37 76  1  0
 38 77  1  0
 39 78  1  0
 40 79  1  0
 41 80  1  0
M  END
> <Name>
DFD2009_22R

> <Clean Energy>
49.1323

$$$$
DFD2009_22S
  SciTegic12132405553D

 80 83  0  0  0  0            999 V2000
   -1.5807   -0.5242   -0.9621 C   0  0  1  0  0  0
   -1.7117    0.9606   -0.6171 C   0  0
   -1.2465    0.9188    0.7442 O   0  0
    0.0401    0.1780    0.5724 C   0  0
   -0.2846   -0.7769   -0.4801 N   0  0
    0.4770   -0.4843    1.8930 C   0  0
    1.2301    1.0848    0.1328 C   0  0
    0.5386   -1.8018   -0.9630 C   0  0
    0.0209   -2.6403   -1.9913 O   0  0
    0.8718   -3.7240   -2.4889 C   0  0
    0.0953   -4.4717   -3.5751 C   0  0
    1.6705   -1.9580   -0.4872 O   0  0
    2.1712   -3.1691   -3.1164 C   0  0
    1.2114   -4.7253   -1.3605 C   0  0
   -2.5840   -1.3736   -0.1604 C   0  0
   -3.9144   -1.0310   -0.5632 O   0  0
   -4.9522   -1.7630    0.0874 C   0  0
   -6.2078   -1.4788   -0.2530 C   0  0
   -7.3310   -2.1866    0.3609 C   0  0
   -7.1012   -3.1318    1.2755 C   0  0
   -5.7353   -3.4590    1.6666 C   0  0
   -4.7054   -2.8218    1.1159 C   0  0
   -8.6419   -1.8487   -0.0399 N   0  0
   -9.8917   -2.5893    0.5442 P   0  0
   -9.7916   -4.0883    0.1908 O   0  0
   -9.9282   -2.4443    1.9168 O   0  0
  -11.1946   -2.0141   -0.0611 O   0  0
  -10.9128   -4.7795    0.7269 C   0  0
  -10.7671   -6.2319    0.4299 C   0  0
  -11.8225   -6.9438    0.0432 C   0  0
  -11.6733   -8.3699   -0.2495 C   0  0
  -10.4816   -8.9527   -0.1290 C   0  0
   -9.3214   -8.1661    0.2965 C   0  0
   -9.4590   -6.8690    0.5627 C   0  0
  -11.3490   -0.6493    0.3257 C   0  0
  -12.6325   -0.1178   -0.2166 C   0  0
  -12.7270    1.1617   -0.5688 C   0  0
  -13.9873    1.6817   -1.1006 C   0  0
  -15.0380    0.8738   -1.2315 C   0  0
  -14.9316   -0.5345   -0.8433 C   0  0
  -13.7844   -1.0062   -0.3596 C   0  0
   -1.7157   -0.7369   -2.0314 H   0  0
   -1.0102    1.5406   -1.2237 H   0  0
   -2.7314    1.3463   -0.7538 H   0  0
    1.3957   -1.0635    1.7274 H   0  0
   -0.3210   -1.1529    2.2462 H   0  0
    0.6655    0.2940    2.6453 H   0  0
    2.1251    0.4632   -0.0093 H   0  0
    1.4246    1.8302    0.9161 H   0  0
    0.9952    1.5985   -0.8085 H   0  0
    0.7137   -5.2926   -3.9647 H   0  0
   -0.1513   -3.7775   -4.3907 H   0  0
   -0.8306   -4.8799   -3.1459 H   0  0
    2.7668   -4.0050   -3.5092 H   0  0
    2.7565   -2.6322   -2.3599 H   0  0
    1.9149   -2.4840   -3.9364 H   0  0
    1.8186   -5.5423   -1.7744 H   0  0
    0.2796   -5.1345   -0.9455 H   0  0
    1.7758   -4.2219   -0.5660 H   0  0
   -2.4656   -1.1802    0.9147 H   0  0
   -2.3966   -2.4377   -0.3655 H   0  0
   -6.3960   -0.7312   -0.9809 H   0  0
   -7.9070   -3.6510    1.7234 H   0  0
   -5.5616   -4.2100    2.3947 H   0  0
   -3.7252   -3.0818    1.4200 H   0  0
   -8.7666   -1.1456   -0.7315 H   0  0
  -11.8641   -4.3937    0.3333 H   0  0
  -10.8837   -4.6440    1.8164 H   0  0
  -12.7701   -6.4776   -0.0529 H   0  0
  -12.5134   -8.9390   -0.5577 H   0  0
  -10.3728   -9.9861   -0.3412 H   0  0
   -8.3723   -8.6294    0.3922 H   0  0
   -8.6195   -6.2969    0.8708 H   0  0
  -10.5063   -0.0253   -0.0034 H   0  0
  -11.4014   -0.6168    1.4223 H   0  0
  -11.8894    1.8034   -0.4638 H   0  0
  -14.0640    2.7014   -1.3814 H   0  0
  -15.9516    1.2501   -1.6168 H   0  0
  -15.7678   -1.1782   -0.9474 H   0  0
  -13.7059   -2.0262   -0.0779 H   0  0
  1  2  1  0
  2  3  1  0
  3  4  1  0
  4  5  1  0
  1  5  1  0
  4  6  1  0
  4  7  1  0
  8  9  1  0
  9 10  1  0
 10 11  1  0
  5  8  1  0
  8 12  2  0
 10 13  1  0
 10 14  1  0
 15 16  1  0
 16 17  1  0
  1 15  1  0
 20 21  1  0
 21 22  2  0
 22 17  1  0
 18 17  2  0
 19 20  2  0
 18 19  1  0
 19 23  1  0
 23 24  1  0
 24 25  1  0
 24 26  2  0
 24 27  1  0
 28 29  1  0
 25 28  1  0
 30 31  1  0
 31 32  2  0
 32 33  1  0
 33 34  2  0
 29 30  2  0
 29 34  1  0
 35 36  1  0
 27 35  1  0
 37 38  1  0
 38 39  2  0
 39 40  1  0
 40 41  2  0
 36 37  2  0
 36 41  1  0
  1 42  1  0
  2 43  1  0
  2 44  1  0
  6 45  1  0
  6 46  1  0
  6 47  1  0
  7 48  1  0
  7 49  1  0
  7 50  1  0
 11 51  1  0
 11 52  1  0
 11 53  1  0
 13 54  1  0
 13 55  1  0
 13 56  1  0
 14 57  1  0
 14 58  1  0
 14 59  1  0
 15 60  1  0
 15 61  1  0
 18 62  1  0
 20 63  1  0
 21 64  1  0
 22 65  1  0
 23 66  1  0
 28 67  1  0
 28 68  1  0
 30 69  1  0
 31 70  1  0
 32 71  1  0
 33 72  1  0
 34 73  1  0
 35 74  1  0
 35 75  1  0
 37 76  1  0
 38 77  1  0
 39 78  1  0
 40 79  1  0
 41 80  1  0
M  END
> <Name>
DFD2009_22S

> <Clean Energy>
47.4972

$$$$
DFD2009_23S
  SciTegic12132405553D

 54 55  0  0  0  0            999 V2000
   -2.5681   -1.1039    0.6063 C   0  0  1  0  0  0
   -1.2904   -1.7591    0.0784 C   0  0
   -0.3217   -0.8293    0.5667 O   0  0
   -0.8622    0.4445    0.0667 C   0  0
   -2.3139    0.2599    0.1627 N   0  0
   -0.4450    0.7447   -1.4087 C   0  0
   -0.3389    1.6170    0.9166 C   0  0
   -3.2664    1.2923   -0.1656 C   0  0
   -4.6756    1.0768   -0.0667 O   0  0
   -5.5590    2.2114   -0.4372 C   0  0
   -5.3582    2.6118   -1.9195 C   0  0
   -2.8258    2.3862   -0.5392 O   0  0
   -5.3209    3.4292    0.4893 C   0  0
   -7.0107    1.7761   -0.2685 C   0  0
   -3.8301   -1.8593    0.1361 C   0  0
   -5.0255   -1.2792    0.6621 O   0  0
   -6.2284   -1.9786    0.3121 C   0  0
   -7.3732   -1.5182    0.8106 C   0  0
   -8.6460   -2.1679    0.5065 C   0  0
   -8.6685   -3.2448   -0.2801 C   0  0
   -7.4293   -3.7745   -0.8364 C   0  0
   -6.2650   -3.1897   -0.5677 C   0  0
   -9.8262   -1.6214    1.0663 N   0  0
  -11.2515   -2.2215    0.7966 P   0  0
  -11.4872   -2.3966   -0.7269 O   0  0
  -12.1983   -1.3514    1.2977 O   0  0
  -11.4039   -3.5926    1.5146 O   0  0
   -2.5313   -1.1125    1.7039 H   0  0
   -1.1576   -2.7847    0.4488 H   0  0
   -1.3014   -1.7569   -1.0165 H   0  0
   -0.8996    1.6911   -1.7309 H   0  0
   -0.7816   -0.0614   -2.0740 H   0  0
    0.6489    0.8299   -1.4638 H   0  0
   -0.7802    2.5575    0.5609 H   0  0
    0.7549    1.6703    0.8273 H   0  0
   -0.6150    1.4563    1.9681 H   0  0
   -6.0500    3.4286   -2.1683 H   0  0
   -5.5687    1.7446   -2.5610 H   0  0
   -4.3283    2.9482   -2.0859 H   0  0
   -6.0130    4.2353    0.2086 H   0  0
   -4.2898    3.7874    0.3880 H   0  0
   -5.5055    3.1337    1.5315 H   0  0
   -7.6745    2.6083   -0.5408 H   0  0
   -7.1871    1.4917    0.7786 H   0  0
   -7.2118    0.9153   -0.9224 H   0  0
   -3.7635   -2.8901    0.5116 H   0  0
   -3.8613   -1.8709   -0.9628 H   0  0
   -7.3617   -0.6644    1.4382 H   0  0
   -9.5837   -3.7226   -0.5047 H   0  0
   -7.4562   -4.6318   -1.4599 H   0  0
   -5.3832   -3.5976   -0.9875 H   0  0
   -9.7487   -0.8190    1.6478 H   0  0
  -11.3968   -1.5201   -1.1763 H   0  0
  -10.7433   -4.2350    1.1645 H   0  0
  1  2  1  0
  2  3  1  0
  3  4  1  0
  4  5  1  0
  1  5  1  0
  4  6  1  0
  4  7  1  0
  8  9  1  0
  9 10  1  0
 10 11  1  0
  5  8  1  0
  8 12  2  0
 10 13  1  0
 10 14  1  0
 15 16  1  0
 16 17  1  0
  1 15  1  0
 20 21  1  0
 21 22  2  0
 22 17  1  0
 18 17  2  0
 19 20  2  0
 18 19  1  0
 19 23  1  0
 23 24  1  0
 24 25  1  0
 24 26  2  0
 24 27  1  0
  1 28  1  0
  2 29  1  0
  2 30  1  0
  6 31  1  0
  6 32  1  0
  6 33  1  0
  7 34  1  0
  7 35  1  0
  7 36  1  0
 11 37  1  0
 11 38  1  0
 11 39  1  0
 13 40  1  0
 13 41  1  0
 13 42  1  0
 14 43  1  0
 14 44  1  0
 14 45  1  0
 15 46  1  0
 15 47  1  0
 18 48  1  0
 20 49  1  0
 21 50  1  0
 22 51  1  0
 23 52  1  0
 25 53  1  0
 27 54  1  0
M  END
> <Name>
DFD2009_23S

> <Clean Energy>
31.8433

$$$$
DFD2009_23R
  SciTegic12132405553D

 54 55  0  0  0  0            999 V2000
   -2.8390   -0.9574    0.5585 C   0  0  2  0  0  0
   -1.6111   -1.7937    0.1935 C   0  0
   -0.5932   -0.9784    0.8042 O   0  0
   -0.9328    0.3596    0.2322 C   0  0
   -2.3889    0.3192    0.1799 N   0  0
   -0.3453    0.5966   -1.1926 C   0  0
   -0.3790    1.4954    1.1136 C   0  0
   -3.2418    1.3654   -0.1918 C   0  0
   -4.6442    1.1175   -0.1713 O   0  0
   -5.5417    2.2111   -0.5510 C   0  0
   -5.2898    2.6574   -2.0098 C   0  0
   -2.7668    2.4607   -0.5184 O   0  0
   -5.3871    3.4144    0.4076 C   0  0
   -6.9797    1.6976   -0.4478 C   0  0
   -3.0850   -0.9716    2.0790 C   0  0
   -3.4253   -2.3020    2.4834 O   0  0
   -3.6874   -2.4658    3.8762 C   0  0
   -4.0091   -3.6868    4.2983 C   0  0
   -4.2948   -3.9448    5.7101 C   0  0
   -4.2333   -2.9449    6.5914 C   0  0
   -3.8825   -1.5982    6.1535 C   0  0
   -3.6208   -1.3524    4.8725 C   0  0
   -4.6319   -5.2656    6.0954 N   0  0
   -4.9453   -5.6637    7.5814 P   0  0
   -3.8171   -5.1702    8.5254 O   0  0
   -5.0250   -7.0391    7.6621 O   0  0
   -6.3070   -5.0580    8.0259 O   0  0
   -3.7565   -1.2830    0.0497 H   0  0
   -1.6688   -2.8272    0.5620 H   0  0
   -1.4765   -1.7924   -0.8921 H   0  0
   -0.6698    1.5806   -1.5586 H   0  0
   -0.6945   -0.1790   -1.8866 H   0  0
    0.7518    0.5711   -1.1396 H   0  0
   -0.6861    2.4653    0.6989 H   0  0
    0.7180    1.4372    1.1354 H   0  0
   -0.7740    1.3897    2.1341 H   0  0
   -6.0022    3.4523   -2.2713 H   0  0
   -5.4337    1.8001   -2.6820 H   0  0
   -4.2670    3.0389   -2.1167 H   0  0
   -6.0982    4.2002    0.1169 H   0  0
   -4.3663    3.8121    0.3529 H   0  0
   -5.5995    3.0892    1.4357 H   0  0
   -7.6742    2.5022   -0.7278 H   0  0
   -7.1804    1.3808    0.5854 H   0  0
   -7.1119    0.8440   -1.1273 H   0  0
   -3.9130   -0.2881    2.3168 H   0  0
   -2.1781   -0.6482    2.6082 H   0  0
   -4.0596   -4.4841    3.6012 H   0  0
   -4.4395   -3.1206    7.6126 H   0  0
   -3.8360   -0.8098    6.8610 H   0  0
   -3.3691   -0.3651    4.5848 H   0  0
   -4.6661   -5.9707    5.3957 H   0  0
   -2.9556   -5.5653    8.2426 H   0  0
   -6.2703   -4.0736    7.9865 H   0  0
  1  2  1  0
  2  3  1  0
  3  4  1  0
  4  5  1  0
  1  5  1  0
  4  6  1  0
  4  7  1  0
  8  9  1  0
  9 10  1  0
 10 11  1  0
  5  8  1  0
  8 12  2  0
 10 13  1  0
 10 14  1  0
 15 16  1  0
 16 17  1  0
  1 15  1  0
 20 21  1  0
 21 22  2  0
 22 17  1  0
 18 17  2  0
 19 20  2  0
 18 19  1  0
 19 23  1  0
 23 24  1  0
 24 25  1  0
 24 26  2  0
 24 27  1  0
  1 28  1  0
  2 29  1  0
  2 30  1  0
  6 31  1  0
  6 32  1  0
  6 33  1  0
  7 34  1  0
  7 35  1  0
  7 36  1  0
 11 37  1  0
 11 38  1  0
 11 39  1  0
 13 40  1  0
 13 41  1  0
 13 42  1  0
 14 43  1  0
 14 44  1  0
 14 45  1  0
 15 46  1  0
 15 47  1  0
 18 48  1  0
 20 49  1  0
 21 50  1  0
 22 51  1  0
 23 52  1  0
 25 53  1  0
 27 54  1  0
M  END
> <Name>
DFD2009_23R

> <Clean Energy>
30.0756

$$$$
DFD2009_25
  SciTegic12132405553D

 72 75  0  0  0  0            999 V2000
   -0.3660    1.7709    2.0899 O   0  0
   -3.1458    0.8538   -0.4205 C   0  0
   -2.8234   -0.3469    0.5638 C   0  0  2  0  0  0
   -1.3814   -0.9496    0.2281 C   0  0  2  0  0  0
   -0.2549    0.0932    0.4090 C   0  0  1  0  0  0
   -0.2372    0.5680    1.8376 C   0  0
   -1.2480   -1.4257   -1.1685 O   0  0
    0.9355   -0.6458    0.1077 O   0  0
   -3.7840   -1.4432    0.4680 O   0  0
   -4.4085    1.4430   -0.1492 O   0  0
    2.1129    0.1620    0.1720 C   0  0
    3.3042   -0.6601   -0.1943 C   0  0
   -2.0508   -2.5691   -1.5749 C   0  0
   -1.6625   -3.7886   -0.7919 C   0  0
   -5.1183   -1.1584    0.9124 C   0  0
   -5.8839   -2.4243    0.7882 C   0  0
   -4.6479    2.4931   -1.0721 C   0  0
   -6.0073    3.0480   -0.8175 C   0  0
   -0.1252   -0.1317    2.6263 H   0  0
   -2.6899   -4.5560   -0.0952 C   0  0
   -2.3541   -5.6362    0.6048 C   0  0
   -0.9517   -6.0560    0.6733 C   0  0
   -0.0151   -5.3567    0.0341 C   0  0
   -0.3872   -4.1705   -0.7339 C   0  0
   -6.7889   -2.6170   -0.3383 C   0  0
   -7.4665   -3.7566   -0.4578 C   0  0
   -7.3018   -4.8141    0.5427 C   0  0
   -6.4746   -4.6343    1.5708 C   0  0
   -5.7319   -3.3821    1.6986 C   0  0
   -6.2098    4.4933   -0.7641 C   0  0
   -7.4254    4.9857   -0.5350 C   0  0
   -8.5576    4.0772   -0.3367 C   0  0
   -8.3702    2.7594   -0.3855 C   0  0
   -7.0344    2.2208   -0.6373 C   0  0
    3.1258   -2.0327   -0.6764 C   0  0
    4.1881   -2.7656   -1.0013 C   0  0
    5.5335   -2.1995   -0.8774 C   0  0
    5.6940   -0.9519   -0.4392 C   0  0
    4.5259   -0.1459   -0.0813 C   0  0
   -2.3851    1.6355   -0.3147 H   0  0
   -3.1376    0.4786   -1.4530 H   0  0
   -2.8256    0.0141    1.5995 H   0  0
   -1.1776   -1.7741    0.9236 H   0  0
   -0.3736    0.9376   -0.2811 H   0  0
    2.2764    0.5952    1.1670 H   0  0
    2.0381    1.0020   -0.5317 H   0  0
   -1.7986   -2.7508   -2.6279 H   0  0
   -3.1241   -2.3692   -1.4780 H   0  0
   -5.5714   -0.3834    0.2890 H   0  0
   -5.0525   -0.8604    1.9673 H   0  0
   -4.6374    2.0412   -2.0734 H   0  0
   -3.8827    3.2789   -1.0061 H   0  0
   -3.7031   -4.2503   -0.1468 H   0  0
   -3.1012   -6.1926    1.1121 H   0  0
   -0.6825   -6.9168    1.2312 H   0  0
    1.0000   -5.6598    0.0830 H   0  0
    0.3574   -3.6100   -1.2414 H   0  0
   -6.9052   -1.8498   -1.0616 H   0  0
   -8.1249   -3.8989   -1.2768 H   0  0
   -7.8408   -5.7224    0.4482 H   0  0
   -6.3538   -5.3992    2.2951 H   0  0
   -5.0684   -3.2379    2.5129 H   0  0
   -5.3890    5.1490   -0.9077 H   0  0
   -7.5739    6.0349   -0.4959 H   0  0
   -9.5261    4.4688   -0.1541 H   0  0
   -9.1892    2.1012   -0.2419 H   0  0
   -6.8829    1.1705   -0.6759 H   0  0
    2.1518   -2.4437   -0.7666 H   0  0
    4.0603   -3.7590   -1.3499 H   0  0
    6.3802   -2.7832   -1.1365 H   0  0
    6.6681   -0.5425   -0.3496 H   0  0
    4.6521    0.8472    0.2682 H   0  0
  3  2  1  0
  4  3  1  0
  5  4  1  0
  5  6  1  0
  1  6  2  0
  4  7  1  0
  5  8  1  0
  3  9  1  0
  2 10  1  0
 11 12  1  0
  8 11  1  0
 13 14  1  0
  7 13  1  0
 15 16  1  0
  9 15  1  0
 17 18  1  0
 10 17  1  0
  6 19  1  0
 20 21  2  0
 21 22  1  0
 22 23  2  0
 23 24  1  0
 14 20  1  0
 14 24  2  0
 25 26  2  0
 26 27  1  0
 27 28  2  0
 28 29  1  0
 16 25  1  0
 16 29  2  0
 30 31  2  0
 31 32  1  0
 32 33  2  0
 33 34  1  0
 18 30  1  0
 18 34  2  0
 35 36  2  0
 36 37  1  0
 37 38  2  0
 38 39  1  0
 12 35  1  0
 12 39  2  0
  2 40  1  0
  2 41  1  0
  3 42  1  0
  4 43  1  0
  5 44  1  0
 11 45  1  0
 11 46  1  0
 13 47  1  0
 13 48  1  0
 15 49  1  0
 15 50  1  0
 17 51  1  0
 17 52  1  0
 20 53  1  0
 21 54  1  0
 22 55  1  0
 23 56  1  0
 24 57  1  0
 25 58  1  0
 26 59  1  0
 27 60  1  0
 28 61  1  0
 29 62  1  0
 30 63  1  0
 31 64  1  0
 32 65  1  0
 33 66  1  0
 34 67  1  0
 35 68  1  0
 36 69  1  0
 37 70  1  0
 38 71  1  0
 39 72  1  0
M  END
> <Name>
DFD2009_25

> <Clean Energy>
47.5225

$$$$
DFD2009_26S
  SciTegic12132405553D

 94 97  0  0  0  0            999 V2000
   -1.4107    1.6331    1.2751 O   0  0
   -3.5073    0.5054   -1.0140 C   0  0
   -3.0879   -0.4148    0.2031 C   0  0  2  0  0  0
   -1.6495   -1.0501   -0.1025 C   0  0  2  0  0  0
   -0.4548   -0.0267   -0.3194 C   0  0  1  0  0  0
   -0.1991    0.9305    1.0112 C   0  0  1  0  0  0
   -1.6446   -1.8419   -1.3588 O   0  0
    0.5494   -1.0360   -0.6572 O   0  0
   -4.0242   -1.5091    0.4521 O   0  0
   -4.7616    1.1344   -0.8045 O   0  0
    1.7951   -0.6777   -1.0649 C   0  0
    2.5481   -1.9188   -1.3759 C   0  0
   -2.4350   -3.0636   -1.4082 C   0  0
   -1.9071   -4.0622   -0.4228 C   0  0
   -5.3246   -1.1204    0.9236 C   0  0
   -6.0879   -2.3668    1.1869 C   0  0
   -5.0868    1.9284   -1.9331 C   0  0
   -6.4397    2.5171   -1.7243 C   0  0
    0.8524    2.1870    1.1023 C   0  0
   -2.8091   -4.6609    0.5546 C   0  0
   -2.3454   -5.5443    1.4348 C   0  0
   -0.9279   -5.9167    1.4194 C   0  0
   -0.1064   -5.3719    0.5236 C   0  0
   -0.6196   -4.4024   -0.4412 C   0  0
   -7.2057   -2.7291    0.3235 C   0  0
   -7.8859   -3.8501    0.5537 C   0  0
   -7.5099   -4.7171    1.6735 C   0  0
   -6.4888   -4.3826    2.4604 C   0  0
   -5.7447   -3.1509    2.2050 C   0  0
   -6.6757    3.9295   -2.0101 C   0  0
   -7.8856    4.4522   -1.8211 C   0  0
   -8.9776    3.6100   -1.3265 C   0  0
   -8.7596    2.3220   -1.0662 C   0  0
   -7.4303    1.7500   -1.2746 C   0  0
    2.7168   -2.9359   -0.3452 C   0  0
    3.3861   -4.0534   -0.6171 C   0  0
    3.9543   -4.2586   -1.9507 C   0  0
    3.7998   -3.3272   -2.8903 C   0  0
    3.0620   -2.1013   -2.5885 C   0  0
    0.4813    3.1351    0.1718 F   0  0
    2.5629    2.0575    0.9643 P   0  0
    0.5800    2.6607    2.3613 F   0  0
    3.1614    0.8693    2.0374 S   0  0
    3.2689    3.4387    1.2761 O   0  0
    3.0007    1.7699   -0.4866 O   0  0
    4.4400    1.7866   -0.5794 C   0  0
    4.8592    1.5001   -2.0299 C   0  0
    3.3613    3.7685    2.6790 C   0  0
    4.0834    5.1157    2.8248 C   0  0
   -1.6135    2.2502    0.5312 H   0  0
   -2.7562    1.2929   -1.1519 H   0  0
   -3.5590   -0.1086   -1.9234 H   0  0
   -3.0286    0.1802    1.1155 H   0  0
   -1.3651   -1.6908    0.7423 H   0  0
   -0.6808    0.6059   -1.1870 H   0  0
    0.0145    0.2458    1.8435 H   0  0
    2.2569   -0.2093   -0.2117 H   0  0
    1.7575   -0.0063   -1.9336 H   0  0
   -2.2846   -3.4735   -2.4156 H   0  0
   -3.4995   -2.8706   -1.2387 H   0  0
   -5.8468   -0.5109    0.1820 H   0  0
   -5.1696   -0.5776    1.8655 H   0  0
   -5.1315    1.2484   -2.7949 H   0  0
   -4.3385    2.7129   -2.1119 H   0  0
   -3.8325   -4.3902    0.5625 H   0  0
   -3.0015   -5.9783    2.1462 H   0  0
   -0.5565   -6.6201    2.1207 H   0  0
    0.9201   -5.6400    0.5110 H   0  0
    0.0338   -3.9644   -1.1540 H   0  0
   -7.4750   -2.0994   -0.4868 H   0  0
   -8.6990   -4.1154   -0.0731 H   0  0
   -8.0505   -5.6107    1.8573 H   0  0
   -6.2152   -5.0096    3.2706 H   0  0
   -4.9285   -2.8838    2.8271 H   0  0
   -5.8839    4.5373   -2.3678 H   0  0
   -8.0585    5.4778   -2.0282 H   0  0
   -9.9415    4.0257   -1.1757 H   0  0
   -9.5495    1.7118   -0.7081 H   0  0
   -7.2544    0.7235   -1.0670 H   0  0
    2.3023   -2.7853    0.6195 H   0  0
    3.5066   -4.7947    0.1316 H   0  0
    4.4885   -5.1484   -2.1686 H   0  0
    4.2109   -3.4748   -3.8565 H   0  0
    2.9364   -1.3582   -3.3346 H   0  0
    4.8595    1.0151    0.0803 H   0  0
    4.8204    2.7722   -0.2800 H   0  0
    5.9560    1.5116   -2.1036 H   0  0
    4.4382    2.2708   -2.6911 H   0  0
    4.4812    0.5121   -2.3311 H   0  0
    3.9334    2.9927    3.2048 H   0  0
    2.3650    3.8490    3.1180 H   0  0
    4.1613    5.3763    3.8901 H   0  0
    3.5144    5.8943    2.2966 H   0  0
    5.0908    5.0390    2.3905 H   0  0
  3  2  1  0
  4  3  1  0
  5  4  1  0
  5  6  1  0
  6  1  1  0
  4  7  1  0
  5  8  1  0
  3  9  1  0
  2 10  1  0
 11 12  1  0
  8 11  1  0
 13 14  1  0
  7 13  1  0
 15 16  1  0
  9 15  1  0
 17 18  1  0
 10 17  1  0
  6 19  1  0
 20 21  2  0
 21 22  1  0
 22 23  2  0
 23 24  1  0
 14 20  1  0
 14 24  2  0
 25 26  2  0
 26 27  1  0
 27 28  2  0
 28 29  1  0
 16 25  1  0
 16 29  2  0
 30 31  2  0
 31 32  1  0
 32 33  2  0
 33 34  1  0
 18 30  1  0
 18 34  2  0
 35 36  2  0
 36 37  1  0
 37 38  2  0
 38 39  1  0
 12 35  1  0
 12 39  2  0
 19 40  1  0
 19 41  1  0
 19 42  1  0
 41 43  2  0
 41 44  1  0
 41 45  1  0
 46 47  1  0
 45 46  1  0
 48 49  1  0
 44 48  1  0
  1 50  1  0
  2 51  1  0
  2 52  1  0
  3 53  1  0
  4 54  1  0
  5 55  1  0
  6 56  1  0
 11 57  1  0
 11 58  1  0
 13 59  1  0
 13 60  1  0
 15 61  1  0
 15 62  1  0
 17 63  1  0
 17 64  1  0
 20 65  1  0
 21 66  1  0
 22 67  1  0
 23 68  1  0
 24 69  1  0
 25 70  1  0
 26 71  1  0
 27 72  1  0
 28 73  1  0
 29 74  1  0
 30 75  1  0
 31 76  1  0
 32 77  1  0
 33 78  1  0
 34 79  1  0
 35 80  1  0
 36 81  1  0
 37 82  1  0
 38 83  1  0
 39 84  1  0
 46 85  1  0
 46 86  1  0
 47 87  1  0
 47 88  1  0
 47 89  1  0
 48 90  1  0
 48 91  1  0
 49 92  1  0
 49 93  1  0
 49 94  1  0
M  END
> <Name>
DFD2009_26S

> <Clean Energy>
62.3845

$$$$
DFD2009_26R
  SciTegic12132405553D

 94 97  0  0  0  0            999 V2000
   -0.9422    1.0431    1.4183 O   0  0
   -3.3776    0.2529   -0.7608 C   0  0
   -2.9586   -0.8466    0.2977 C   0  0  2  0  0  0
   -1.6239   -1.5760   -0.1939 C   0  0  2  0  0  0
   -0.3789   -0.6221   -0.3582 C   0  0  1  0  0  0
    0.0911    0.1658    0.9796 C   0  0  2  0  0  0
   -1.7704   -2.2080   -1.5260 O   0  0
    0.6654   -1.4970   -0.8531 O   0  0
   -3.9760   -1.8747    0.4951 O   0  0
   -4.5425    0.9606   -0.3659 O   0  0
    1.8441   -0.8222   -1.3319 C   0  0
    2.8249   -1.8349   -1.8179 C   0  0
   -2.6742   -3.3413   -1.6440 C   0  0
   -2.1816   -4.4847   -0.8067 C   0  0
   -5.1945   -1.4430    1.1171 C   0  0
   -6.0408   -2.6514    1.2840 C   0  0
   -4.8735    1.9162   -1.3599 C   0  0
   -6.1387    2.5969   -0.9637 C   0  0
    0.4954   -0.7791    2.1837 C   0  0
   -3.0809   -5.1190    0.1511 C   0  0
   -2.6486   -6.1286    0.9020 C   0  0
   -1.2690   -6.6039    0.7641 C   0  0
   -0.4500   -6.0259   -0.1133 C   0  0
   -0.9279   -4.9177   -0.9360 C   0  0
   -7.1971   -2.8529    0.4192 C   0  0
   -7.9501   -3.9415    0.5610 C   0  0
   -7.6155   -4.9342    1.5854 C   0  0
   -6.5589   -4.7465    2.3740 C   0  0
   -5.7344   -3.5502    2.2154 C   0  0
   -6.2549    4.0484   -1.0756 C   0  0
   -7.3862    4.6536   -0.7196 C   0  0
   -8.5121    3.8629   -0.2162 C   0  0
   -8.4035    2.5393   -0.1148 C   0  0
   -7.1603    1.8766   -0.5063 C   0  0
    2.6024   -3.2562   -1.5405 C   0  0
    3.4752   -4.1621   -1.9742 C   0  0
    4.6573   -3.7370   -2.7277 C   0  0
    4.8584   -2.4442   -2.9787 C   0  0
    3.8980   -1.4479   -2.5018 C   0  0
   -0.5688   -1.5367    2.6206 F   0  0
    0.9988    0.1885    3.4640 P   0  0
    1.5112   -1.6126    1.7717 F   0  0
    2.3240    1.1465    2.9670 S   0  0
    1.3939   -0.6362    4.7469 O   0  0
   -0.1827    1.1094    3.8554 O   0  0
    0.1973    1.9570    4.9393 C   0  0
   -0.9896    2.8561    5.3144 C   0  0
    2.6221   -1.3727    4.6122 C   0  0
    2.9090   -2.1078    5.9295 C   0  0
   -1.1640    1.6767    0.6932 H   0  0
   -2.5665    0.9818   -0.8735 H   0  0
   -3.5620   -0.2354   -1.7272 H   0  0
   -2.7651   -0.3752    1.2676 H   0  0
   -1.3524   -2.3370    0.5431 H   0  0
   -0.6125    0.1193   -1.1316 H   0  0
    0.9672    0.7715    0.7217 H   0  0
    2.3237   -0.2416   -0.5349 H   0  0
    1.6110   -0.1212   -2.1444 H   0  0
   -2.6294   -3.6503   -2.6966 H   0  0
   -3.7029   -3.0757   -1.3771 H   0  0
   -5.7091   -0.7065    0.4947 H   0  0
   -4.9247   -1.0380    2.1016 H   0  0
   -5.0547    1.3570   -2.2880 H   0  0
   -4.0657    2.6451   -1.5137 H   0  0
   -4.0776   -4.7731    0.2484 H   0  0
   -3.3023   -6.5885    1.5993 H   0  0
   -0.9228   -7.4082    1.3623 H   0  0
    0.5488   -6.3687   -0.2140 H   0  0
   -0.2759   -4.4527   -1.6325 H   0  0
   -7.4361   -2.1326   -0.3221 H   0  0
   -8.7913   -4.0902   -0.0673 H   0  0
   -8.2143   -5.8020    1.6988 H   0  0
   -6.3151   -5.4645    3.1151 H   0  0
   -4.8894   -3.4002    2.8382 H   0  0
   -5.4387    4.6188   -1.4400 H   0  0
   -7.4720    5.7075   -0.8004 H   0  0
   -9.4135    4.3443    0.0676 H   0  0
   -9.2180    1.9663    0.2497 H   0  0
   -7.0717    0.8215   -0.4257 H   0  0
    1.7466   -3.5649   -0.9942 H   0  0
    3.3148   -5.1912   -1.7738 H   0  0
    5.3532   -4.4586   -3.0735 H   0  0
    5.7143   -2.1370   -3.5242 H   0  0
    4.0564   -0.4186   -2.7012 H   0  0
    1.0484    2.5827    4.6401 H   0  0
    0.4799    1.3422    5.8054 H   0  0
   -0.7032    3.5117    6.1495 H   0  0
   -1.8420    2.2298    5.6147 H   0  0
   -1.2723    3.4691    4.4463 H   0  0
    3.4466   -0.6804    4.3955 H   0  0
    2.5368   -2.1060    3.8049 H   0  0
    3.8474   -2.6732    5.8367 H   0  0
    2.0833   -2.7999    6.1492 H   0  0
    3.0004   -1.3752    6.7444 H   0  0
  3  2  1  0
  4  3  1  0
  5  4  1  0
  5  6  1  0
  6  1  1  0
  4  7  1  0
  5  8  1  0
  3  9  1  0
  2 10  1  0
 11 12  1  0
  8 11  1  0
 13 14  1  0
  7 13  1  0
 15 16  1  0
  9 15  1  0
 17 18  1  0
 10 17  1  0
  6 19  1  0
 20 21  2  0
 21 22  1  0
 22 23  2  0
 23 24  1  0
 14 20  1  0
 14 24  2  0
 25 26  2  0
 26 27  1  0
 27 28  2  0
 28 29  1  0
 16 25  1  0
 16 29  2  0
 30 31  2  0
 31 32  1  0
 32 33  2  0
 33 34  1  0
 18 30  1  0
 18 34  2  0
 35 36  2  0
 36 37  1  0
 37 38  2  0
 38 39  1  0
 12 35  1  0
 12 39  2  0
 19 40  1  0
 19 41  1  0
 19 42  1  0
 41 43  2  0
 41 44  1  0
 41 45  1  0
 46 47  1  0
 45 46  1  0
 48 49  1  0
 44 48  1  0
  1 50  1  0
  2 51  1  0
  2 52  1  0
  3 53  1  0
  4 54  1  0
  5 55  1  0
  6 56  1  0
 11 57  1  0
 11 58  1  0
 13 59  1  0
 13 60  1  0
 15 61  1  0
 15 62  1  0
 17 63  1  0
 17 64  1  0
 20 65  1  0
 21 66  1  0
 22 67  1  0
 23 68  1  0
 24 69  1  0
 25 70  1  0
 26 71  1  0
 27 72  1  0
 28 73  1  0
 29 74  1  0
 30 75  1  0
 31 76  1  0
 32 77  1  0
 33 78  1  0
 34 79  1  0
 35 80  1  0
 36 81  1  0
 37 82  1  0
 38 83  1  0
 39 84  1  0
 46 85  1  0
 46 86  1  0
 47 87  1  0
 47 88  1  0
 47 89  1  0
 48 90  1  0
 48 91  1  0
 49 92  1  0
 49 93  1  0
 49 94  1  0
M  END
> <Name>
DFD2009_26R

> <Clean Energy>
35.1452

$$$$
DFD2009_27
  SciTegic12132405553D

 92 95  0  0  0  0            999 V2000
    0.1472    1.4370   -2.1972 O   0  0
   -3.0890    1.2203   -0.1478 C   0  0
   -2.9513   -0.3634   -0.1755 C   0  0  2  0  0  0
   -1.4581   -0.8953    0.1575 C   0  0  2  0  0  0
   -0.3382   -0.5151   -0.8993 C   0  0  1  0  0  0
    0.0607    0.9857   -1.0499 C   0  0
   -1.4502   -2.3463    0.1439 O   0  0
    0.8206   -1.2459   -0.4720 O   0  0
   -3.2623   -0.9405   -1.5056 O   0  0
   -4.4221    1.7267   -0.3705 O   0  0
    1.8284   -1.2712   -1.5089 C   0  0
    2.9756   -2.1075   -1.0607 C   0  0
   -2.2019   -2.9488    1.2140 C   0  0
   -2.0450   -4.4270    1.1302 C   0  0
   -4.6147   -0.8205   -2.0296 C   0  0
   -5.6037   -1.6698   -1.2707 C   0  0
   -5.2840    1.4535    0.7569 C   0  0
   -6.6455    2.0129    0.5161 C   0  0
    0.3810    1.9611    0.1243 C   0  0
   -3.1887   -5.2966    1.3842 C   0  0
   -3.0496   -6.6180    1.3057 C   0  0
   -1.7477   -7.1973    0.9654 C   0  0
   -0.7050   -6.4013    0.7344 C   0  0
   -0.8618   -4.9505    0.8204 C   0  0
   -6.9520   -1.1659   -1.0250 C   0  0
   -7.8328   -1.9093   -0.3604 C   0  0
   -7.4525   -3.2372    0.1202 C   0  0
   -6.2267   -3.7014   -0.1115 C   0  0
   -5.2617   -2.8833   -0.8418 C   0  0
   -6.8527    3.0158   -0.5266 C   0  0
   -8.0714    3.5050   -0.7442 C   0  0
   -9.2020    3.0380    0.0608 C   0  0
   -9.0107    2.1242    1.0103 C   0  0
   -7.6719    1.5877    1.2479 C   0  0
    2.7425   -3.2484   -0.1805 C   0  0
    3.7667   -3.9958    0.2241 C   0  0
    5.1266   -3.6717   -0.2145 C   0  0
    5.3365   -2.6296   -1.0173 C   0  0
    4.2091   -1.8105   -1.4601 C   0  0
   -0.0698    3.2119   -0.2371 F   0  0
    2.0193    2.1193    0.3374 P   0  0
   -0.1465    1.5711    1.3322 F   0  0
    2.6821    0.6414    0.8768 S   0  0
    2.1878    3.2153    1.4680 O   0  0
    2.6094    2.5287   -1.0701 O   0  0
    4.0005    2.1942   -1.2551 C   0  0
    4.4304    2.6132   -2.6659 C   0  0
    3.5200    3.3686    1.9777 C   0  0
    3.5149    4.4373    3.0804 C   0  0
   -2.7625    1.5911    0.8332 H   0  0
   -2.4393    1.6301   -0.9201 H   0  0
   -3.6287   -0.7669    0.5819 H   0  0
   -1.1460   -0.5516    1.1489 H   0  0
   -0.6402   -0.9115   -1.8782 H   0  0
    2.1858   -0.2732   -1.7942 H   0  0
    1.3826   -1.7487   -2.3915 H   0  0
   -3.2653   -2.6840    1.2021 H   0  0
   -1.7508   -2.6055    2.1545 H   0  0
   -4.5756   -1.2303   -3.0474 H   0  0
   -4.9541    0.2206   -2.0888 H   0  0
   -4.8682    1.9332    1.6527 H   0  0
   -5.3719    0.3813    0.9754 H   0  0
   -4.1302   -4.8749    1.6298 H   0  0
   -3.8805   -7.2506    1.4895 H   0  0
   -1.6354   -8.2500    0.9031 H   0  0
    0.2380   -6.8192    0.4878 H   0  0
   -0.0345   -4.3157    0.6359 H   0  0
   -7.2276   -0.2027   -1.3734 H   0  0
   -8.8099   -1.5386   -0.1799 H   0  0
   -8.1531   -3.8304    0.6511 H   0  0
   -5.9494   -4.6649    0.2354 H   0  0
   -4.2851   -3.2541   -1.0263 H   0  0
   -6.0341    3.3532   -1.1096 H   0  0
   -8.2233    4.2326   -1.5004 H   0  0
  -10.1731    3.4274   -0.1125 H   0  0
   -9.8291    1.7850    1.5930 H   0  0
   -7.5181    0.8566    2.0003 H   0  0
    1.7589   -3.4802    0.1358 H   0  0
    3.5983   -4.8248    0.8637 H   0  0
    5.9436   -4.2663    0.1073 H   0  0
    6.3204   -2.3941   -1.3349 H   0  0
    4.3736   -0.9786   -2.0980 H   0  0
    4.1355    1.1097   -1.1460 H   0  0
    4.6172    2.7150   -0.5205 H   0  0
    5.4894    2.3590   -2.8166 H   0  0
    4.2920    3.6975   -2.7837 H   0  0
    3.8159    2.0814   -3.4070 H   0  0
    4.1917    3.6853    1.1747 H   0  0
    3.8680    2.4143    2.3960 H   0  0
    4.5333    4.5600    3.4764 H   0  0
    2.8411    4.1234    3.8907 H   0  0
    3.1658    5.3925    2.6622 H   0  0
  3  2  1  0
  4  3  1  0
  5  4  1  0
  5  6  1  0
  6  1  2  0
  4  7  1  0
  5  8  1  0
  3  9  1  0
  2 10  1  0
 11 12  1  0
  8 11  1  0
 13 14  1  0
  7 13  1  0
 15 16  1  0
  9 15  1  0
 17 18  1  0
 10 17  1  0
  6 19  1  0
 20 21  2  0
 21 22  1  0
 22 23  2  0
 23 24  1  0
 14 20  1  0
 14 24  2  0
 25 26  2  0
 26 27  1  0
 27 28  2  0
 28 29  1  0
 16 25  1  0
 16 29  2  0
 30 31  2  0
 31 32  1  0
 32 33  2  0
 33 34  1  0
 18 30  1  0
 18 34  2  0
 35 36  2  0
 36 37  1  0
 37 38  2  0
 38 39  1  0
 12 35  1  0
 12 39  2  0
 19 40  1  0
 19 41  1  0
 19 42  1  0
 41 43  2  0
 41 44  1  0
 41 45  1  0
 46 47  1  0
 45 46  1  0
 48 49  1  0
 44 48  1  0
  2 50  1  0
  2 51  1  0
  3 52  1  0
  4 53  1  0
  5 54  1  0
 11 55  1  0
 11 56  1  0
 13 57  1  0
 13 58  1  0
 15 59  1  0
 15 60  1  0
 17 61  1  0
 17 62  1  0
 20 63  1  0
 21 64  1  0
 22 65  1  0
 23 66  1  0
 24 67  1  0
 25 68  1  0
 26 69  1  0
 27 70  1  0
 28 71  1  0
 29 72  1  0
 30 73  1  0
 31 74  1  0
 32 75  1  0
 33 76  1  0
 34 77  1  0
 35 78  1  0
 36 79  1  0
 37 80  1  0
 38 81  1  0
 39 82  1  0
 46 83  1  0
 46 84  1  0
 47 85  1  0
 47 86  1  0
 47 87  1  0
 48 88  1  0
 48 89  1  0
 49 90  1  0
 49 91  1  0
 49 92  1  0
M  END
> <Name>
DFD2009_27

> <Clean Energy>
68.6393

$$$$
DFD2009_28
  SciTegic12132405553D

 75 78  0  0  0  0            999 V2000
   -0.0435   -0.1758    2.5073 O   0  0
   -3.1494    0.7323   -0.6703 C   0  0
   -2.8184   -0.3975    0.3948 C   0  0  2  0  0  0
   -1.3888   -1.0320    0.0679 C   0  0  2  0  0  0
   -0.2427    0.0091    0.1397 C   0  0  1  0  0  0
   -0.1647    0.5858    1.5416 C   0  0
   -1.3024   -1.6048   -1.2917 O   0  0
    0.9199   -0.7880   -0.1515 O   0  0
   -3.8025   -1.4818    0.4033 O   0  0
   -4.3950    1.3615   -0.4161 O   0  0
    2.1334   -0.0321   -0.1942 C   0  0
    3.2703   -0.9471   -0.5025 C   0  0
   -2.0764   -2.8038   -1.5624 C   0  0
   -1.5582   -3.9490   -0.7407 C   0  0
   -5.1128   -1.1189    0.8758 C   0  0
   -5.9588   -2.3401    0.9001 C   0  0
   -4.6419    2.3445   -1.4068 C   0  0
   -5.9885    2.9343   -1.1616 C   0  0
   -0.2421    2.0790    1.7723 C   0  0
   -2.4840   -4.7560    0.0446 C   0  0
   -2.0278   -5.7683    0.7782 C   0  0
   -0.5942   -6.0725    0.7941 C   0  0
    0.2500   -5.3368    0.0731 C   0  0
   -0.2548   -4.2273   -0.7308 C   0  0
   -7.2433   -2.3462    0.2079 C   0  0
   -8.0016   -3.4403    0.2255 C   0  0
   -7.5445   -4.6357    0.9393 C   0  0
   -6.3718   -4.6261    1.5705 C   0  0
   -5.5425   -3.4228    1.5502 C   0  0
   -6.1740    4.3818   -1.2107 C   0  0
   -7.3783    4.9049   -0.9895 C   0  0
   -8.5149    4.0277   -0.6972 C   0  0
   -8.3429    2.7077   -0.6528 C   0  0
   -7.0198    2.1354   -0.8959 C   0  0
    3.1100   -2.3915   -0.3245 C   0  0
    4.1206   -3.2117   -0.6009 C   0  0
    5.3928   -2.6682   -1.0822 C   0  0
    5.5376   -1.3537   -1.2431 C   0  0
    4.4250   -0.4520   -0.9394 C   0  0
    0.1390    2.7727    0.6422 F   0  0
   -1.5529    2.3994    2.0565 F   0  0
    0.3617    2.3537    2.6485 H   0  0
   -2.3757    1.5080   -0.6409 H   0  0
   -3.1709    0.2812   -1.6717 H   0  0
   -2.7885    0.0388    1.4009 H   0  0
   -1.1675   -1.8057    0.8143 H   0  0
   -0.3698    0.8004   -0.6075 H   0  0
    2.3291    0.4337    0.7795 H   0  0
    2.0927    0.7729   -0.9405 H   0  0
   -1.8940   -3.0438   -2.6182 H   0  0
   -3.1485   -2.6522   -1.3973 H   0  0
   -5.5831   -0.3546    0.2534 H   0  0
   -4.9831   -0.7574    1.9045 H   0  0
   -4.6607    1.8213   -2.3726 H   0  0
   -3.8657    3.1223   -1.4152 H   0  0
   -3.5182   -4.5349    0.0305 H   0  0
   -2.7017   -6.3544    1.3501 H   0  0
   -0.2292   -6.8783    1.3790 H   0  0
    1.2883   -5.5549    0.0834 H   0  0
    0.4169   -3.6373   -1.3030 H   0  0
   -7.5712   -1.4787   -0.3086 H   0  0
   -8.9354   -3.4467   -0.2770 H   0  0
   -8.1472   -5.5082    0.9531 H   0  0
   -6.0394   -5.4907    2.0868 H   0  0
   -4.6065   -3.4134    2.0499 H   0  0
   -5.3500    5.0148   -1.4221 H   0  0
   -7.5146    5.9560   -1.0248 H   0  0
   -9.4743    4.4438   -0.5210 H   0  0
   -9.1650    2.0721   -0.4411 H   0  0
   -6.8807    1.0831   -0.8600 H   0  0
    2.1891   -2.7852    0.0245 H   0  0
    4.0045   -4.2581   -0.4722 H   0  0
    6.1989   -3.3212   -1.3024 H   0  0
    6.4587   -0.9604   -1.5916 H   0  0
    4.5380    0.5944   -1.0680 H   0  0
  3  2  1  0
  4  3  1  0
  5  4  1  0
  5  6  1  0
  6  1  2  0
  4  7  1  0
  5  8  1  0
  3  9  1  0
  2 10  1  0
 11 12  1  0
  8 11  1  0
 13 14  1  0
  7 13  1  0
 15 16  1  0
  9 15  1  0
 17 18  1  0
 10 17  1  0
  6 19  1  0
 20 21  2  0
 21 22  1  0
 22 23  2  0
 23 24  1  0
 14 20  1  0
 14 24  2  0
 25 26  2  0
 26 27  1  0
 27 28  2  0
 28 29  1  0
 16 25  1  0
 16 29  2  0
 30 31  2  0
 31 32  1  0
 32 33  2  0
 33 34  1  0
 18 30  1  0
 18 34  2  0
 35 36  2  0
 36 37  1  0
 37 38  2  0
 38 39  1  0
 12 35  1  0
 12 39  2  0
 19 40  1  0
 19 41  1  0
 19 42  1  0
  2 43  1  0
  2 44  1  0
  3 45  1  0
  4 46  1  0
  5 47  1  0
 11 48  1  0
 11 49  1  0
 13 50  1  0
 13 51  1  0
 15 52  1  0
 15 53  1  0
 17 54  1  0
 17 55  1  0
 20 56  1  0
 21 57  1  0
 22 58  1  0
 23 59  1  0
 24 60  1  0
 25 61  1  0
 26 62  1  0
 27 63  1  0
 28 64  1  0
 29 65  1  0
 30 66  1  0
 31 67  1  0
 32 68  1  0
 33 69  1  0
 34 70  1  0
 35 71  1  0
 36 72  1  0
 37 73  1  0
 38 74  1  0
 39 75  1  0
M  END
> <Name>
DFD2009_28

> <Clean Energy>
58.6432

$$$$
DFD2009_29f_S
  SciTegic12132405553D

 23 23  0  0  0  0            999 V2000
   -0.3071    1.3680    0.0072 O   0  0
   -1.6278    0.7154   -0.1524 C   0  0  1  0  0  0
   -1.4917   -0.6419    0.5650 C   0  0  2  0  0  0
   -0.2314   -1.0010   -0.1408 C   0  0  1  0  0  0
    0.6119    0.2467    0.2360 C   0  0  2  0  0  0
   -2.7944    1.5815    0.3348 C   0  0
   -2.8180    2.8013   -0.4059 O   0  0
    0.9862    0.2573    1.6548 O   0  0
   -2.5865   -1.5374    0.3462 O   0  0
    0.3770   -2.2359    0.2306 O   0  0
    1.9173    0.3190   -0.5648 C   0  0
    2.6975   -0.7818   -0.2805 F   0  0
    2.5995    1.4663   -0.2210 F   0  0
   -1.7557    0.4898   -1.2200 H   0  0
   -1.3225   -0.5285    1.6358 H   0  0
   -0.4492   -1.0061   -1.2179 H   0  0
   -2.6628    1.8017    1.4035 H   0  0
   -3.7391    1.0397    0.1846 H   0  0
   -1.9645    3.2835   -0.2716 H   0  0
    0.2235    0.2671    2.2665 H   0  0
   -3.4035   -1.1806    0.7727 H   0  0
    0.5611   -2.2297    1.2023 H   0  0
    1.6845    0.3371   -1.6389 H   0  0
  2  1  1  0
  3  2  1  0
  3  4  1  0
  4  5  1  0
  1  5  1  0
  6  7  1  0
  2  6  1  0
  5  8  1  0
  3  9  1  0
  4 10  1  0
  5 11  1  0
 11 12  1  0
 11 13  1  0
  2 14  1  0
  3 15  1  0
  4 16  1  0
  6 17  1  0
  6 18  1  0
  7 19  1  0
  8 20  1  0
  9 21  1  0
 10 22  1  0
 11 23  1  0
M  END
> <Name>
DFD2009_29f_S

> <Clean Energy>
32.727

$$$$
DFD2009_29f_R
  SciTegic12132405553D

 23 23  0  0  0  0            999 V2000
   -0.2865    1.3474   -0.0053 O   0  0
   -1.6150    0.7037   -0.1474 C   0  0  1  0  0  0
   -1.4907   -0.6632    0.5686 C   0  0  2  0  0  0
   -0.2406   -1.0330   -0.1679 C   0  0  1  0  0  0
    0.6363    0.2225    0.1869 C   0  0  1  0  0  0
   -2.7680    1.5809    0.3531 C   0  0
   -2.7871    2.8020   -0.3854 O   0  0
    1.8055    0.2762   -0.6260 O   0  0
   -2.6004   -1.5397    0.3484 O   0  0
    0.3449   -2.3046    0.1520 O   0  0
    1.1352    0.3004    1.6792 C   0  0
    1.8257    1.4805    1.8516 F   0  0
    1.9801   -0.7547    1.9476 F   0  0
   -1.7566    0.4823   -1.2140 H   0  0
   -1.3225   -0.5654    1.6410 H   0  0
   -0.4875   -1.0170   -1.2385 H   0  0
   -2.6228    1.7981    1.4207 H   0  0
   -3.7196    1.0488    0.2120 H   0  0
   -1.9275    3.2755   -0.2590 H   0  0
    1.5406    0.2774   -1.5787 H   0  0
   -3.4088   -1.1750    0.7844 H   0  0
    0.5268   -2.3673    1.1162 H   0  0
    0.2935    0.2782    2.3804 H   0  0
  2  1  1  0
  3  2  1  0
  3  4  1  0
  4  5  1  0
  1  5  1  0
  6  7  1  0
  2  6  1  0
  5  8  1  0
  3  9  1  0
  4 10  1  0
  5 11  1  0
 11 12  1  0
 11 13  1  0
  2 14  1  0
  3 15  1  0
  4 16  1  0
  6 17  1  0
  6 18  1  0
  7 19  1  0
  8 20  1  0
  9 21  1  0
 10 22  1  0
 11 23  1  0
M  END
> <Name>
DFD2009_29f_R

> <Clean Energy>
34.9575

$$$$
DFD2009_29p_S
  SciTegic12132405553D

 23 23  0  0  0  0            999 V2000
   -0.4478    2.1817   -0.3689 O   0  0
   -1.7351    1.9207    0.2493 C   0  0
   -2.1746    0.4701   -0.0384 C   0  0  2  0  0  0
   -1.1201   -0.4922    0.5228 C   0  0  2  0  0  0
    0.2133   -0.1753   -0.1585 C   0  0  1  0  0  0
    0.6078    1.3062    0.1307 C   0  0  2  0  0  0
   -2.2866    0.2816   -1.4489 O   0  0
   -1.5014   -1.8382    0.2488 O   0  0
    1.2212   -1.0607    0.3251 O   0  0
    0.8490    1.5285    1.5555 O   0  0
    1.9131    1.6464   -0.6127 C   0  0
    2.2370    2.9646   -0.3738 F   0  0
    2.9412    0.8411   -0.1704 F   0  0
   -1.6534    2.0678    1.3342 H   0  0
   -2.4838    2.6137   -0.1581 H   0  0
   -3.1459    0.2741    0.4360 H   0  0
   -1.0246   -0.3508    1.6074 H   0  0
    0.0939   -0.3109   -1.2423 H   0  0
   -2.9598    0.9083   -1.8104 H   0  0
   -2.3700   -2.0265    0.6817 H   0  0
    1.3203   -0.9410    1.3019 H   0  0
    0.0674    1.3317    2.1157 H   0  0
    1.7661    1.4944   -1.6913 H   0  0
  1  2  1  0
  3  2  1  0
  4  3  1  0
  5  4  1  0
  5  6  1  0
  1  6  1  0
  3  7  1  0
  4  8  1  0
  5  9  1  0
  6 10  1  0
  6 11  1  0
 11 12  1  0
 11 13  1  0
  2 14  1  0
  2 15  1  0
  3 16  1  0
  4 17  1  0
  5 18  1  0
  7 19  1  0
  8 20  1  0
  9 21  1  0
 10 22  1  0
 11 23  1  0
M  END
> <Name>
DFD2009_29p_S

> <Clean Energy>
-3.52421

$$$$
DFD2009_29p_R
  SciTegic12132405553D

 23 23  0  0  0  0            999 V2000
   -0.4511    2.1779   -0.3124 O   0  0
   -1.7716    1.9002    0.2619 C   0  0
   -2.1890    0.4554   -0.0708 C   0  0  2  0  0  0
   -1.1495   -0.5228    0.5021 C   0  0  2  0  0  0
    0.2094   -0.1860   -0.1350 C   0  0  1  0  0  0
    0.6145    1.3066    0.2003 C   0  0  1  0  0  0
   -2.2446    0.3002   -1.4886 O   0  0
   -1.5246   -1.8566    0.1673 O   0  0
    1.1998   -1.1269    0.3122 O   0  0
    1.8309    1.6046   -0.4794 O   0  0
    0.8691    1.5946    1.7372 C   0  0
    1.9067    0.8217    2.2065 F   0  0
    1.2093    2.9223    1.8878 F   0  0
   -1.7489    2.0312    1.3494 H   0  0
   -2.5079    2.5936   -0.1663 H   0  0
   -3.1770    0.2441    0.3604 H   0  0
   -1.0921   -0.4240    1.5936 H   0  0
    0.1091   -0.2784   -1.2253 H   0  0
   -2.9064    0.9324   -1.8614 H   0  0
   -2.4076   -2.0573    0.5643 H   0  0
    1.2682   -1.1218    1.2897 H   0  0
    1.7063    1.4598   -1.4494 H   0  0
   -0.0298    1.3847    2.3302 H   0  0
  1  2  1  0
  3  2  1  0
  4  3  1  0
  5  4  1  0
  5  6  1  0
  1  6  1  0
  3  7  1  0
  4  8  1  0
  5  9  1  0
  6 10  1  0
  6 11  1  0
 11 12  1  0
 11 13  1  0
  2 14  1  0
  2 15  1  0
  3 16  1  0
  4 17  1  0
  5 18  1  0
  7 19  1  0
  8 20  1  0
  9 21  1  0
 10 22  1  0
 11 23  1  0
M  END
> <Name>
DFD2009_29p_R

> <Clean Energy>
-0.847949

$$$$
DFD2009_30
  SciTegic12132405553D

 38 39  0  0  0  0            999 V2000
  -10.3822    2.8530    0.1163 C   0  0
  -11.7080    2.2377    0.0575 C   0  0
  -11.8304    0.9178   -0.0607 C   0  0
  -10.6409    0.0751   -0.1326 C   0  0
   -9.4268    0.6189   -0.0806 C   0  0
   -9.2824    2.1046    0.0526 C   0  0
   -8.0258    2.7781    0.1162 O   0  0
   -6.8729    1.9298    0.0436 C   0  0
   -5.6100    2.7900    0.1211 C   0  0
   -4.3813    1.8818    0.0391 C   0  0
   -3.1927    2.6871    0.1077 O   0  0
   -1.9373    1.9896    0.0416 C   0  0
   -1.8125    0.6533   -0.0784 C   0  0
   -0.4803    0.0458   -0.1368 C   0  0
    0.6091    0.8046   -0.0721 C   0  0
    0.4824    2.2485    0.0574 C   0  0
   -0.7228    2.8106    0.1114 C   0  0
    1.6271    3.0438    0.1251 N   0  3
    1.5282    4.2104    0.2298 O   0  0
    2.8258    2.4839    0.0714 O   0  5
  -12.8469    3.0418    0.1261 N   0  3
  -12.7356    4.2073    0.2305 O   0  0
  -14.0520    2.4948    0.0738 O   0  5
   -5.5943    3.7101   -0.9682 O   0  0
  -10.2951    3.9055    0.2105 H   0  0
  -12.7930    0.4757   -0.1030 H   0  0
  -10.7441   -0.9761   -0.2268 H   0  0
   -8.5821   -0.0168   -0.1350 H   0  0
   -6.8804    1.2194    0.8828 H   0  0
   -6.8769    1.3787   -0.9078 H   0  0
   -5.5977    3.3432    1.0708 H   0  0
   -4.3979    1.1712    0.8782 H   0  0
   -4.4017    1.3306   -0.9122 H   0  0
   -2.6541    0.0164   -0.1329 H   0  0
   -0.3848   -1.0061   -0.2312 H   0  0
    1.5696    0.3574   -0.1150 H   0  0
   -0.8081    3.8631    0.2058 H   0  0
   -5.6055    3.2074   -1.8200 H   0  0
  1  2  1  0
  2  3  2  0
  3  4  1  0
  4  5  2  0
  5  6  1  0
  1  6  2  0
  7  8  1  0
  8  9  1  0
  9 10  1  0
 10 11  1  0
 11 12  1  0
  6  7  1  0
 13 14  1  0
 14 15  2  0
 15 16  1  0
 16 17  2  0
 12 13  2  0
 12 17  1  0
 16 18  1  0
 18 19  2  0
 18 20  1  0
  2 21  1  0
 21 22  2  0
 21 23  1  0
  9 24  1  0
  1 25  1  0
  3 26  1  0
  4 27  1  0
  5 28  1  0
  8 29  1  0
  8 30  1  0
  9 31  1  0
 10 32  1  0
 10 33  1  0
 13 34  1  0
 14 35  1  0
 15 36  1  0
 17 37  1  0
 24 38  1  0
M  CHG  4  18   1  20  -1  21   1  23  -1
M  END
> <Name>
DFD2009_30

> <Clean Energy>
-1.92583906650543

$$$$
DFD2009_31R
  SciTegic12132405553D

 26 26  0  0  0  0            999 V2000
   -7.7592    2.0681    0.0500 C   0  0
   -8.9144    1.4148   -0.0678 C   0  0
   -8.8974   -0.0421   -0.2599 C   0  0
   -7.7413   -0.6952   -0.3147 C   0  0
   -6.4751    0.0235   -0.1852 C   0  0
   -6.4754    1.3584   -0.0087 C   0  0
  -10.1293    2.1642   -0.0020 N   0  3
  -10.0625    3.3275    0.1536 O   0  0
  -11.3499    1.6047   -0.1092 O   0  5
   -5.2900    2.1604    0.1296 O   0  0
   -4.0320    1.4673    0.0723 C   0  0
   -2.8934    2.4771    0.2338 C   0  0  1  0  0  0
   -1.5527    1.7353    0.1692 C   0  0
   -0.4835    2.6708    0.3163 O   0  0
   -2.9596    3.4375   -0.8188 O   0  0
   -7.7645    3.1189    0.1887 H   0  0
   -9.8050   -0.5771   -0.3554 H   0  0
   -7.7374   -1.7465   -0.4535 H   0  0
   -5.5784   -0.5333   -0.2343 H   0  0
   -3.9314    0.9608   -0.8987 H   0  0
   -3.9786    0.7262    0.8829 H   0  0
   -2.9869    2.9865    1.2033 H   0  0
   -1.5067    0.9932    0.9789 H   0  0
   -1.4650    1.2262   -0.8011 H   0  0
   -0.5268    3.3380   -0.4129 H   0  0
   -2.8753    2.9746   -1.6887 H   0  0
  1  2  2  0
  2  3  1  0
  3  4  2  0
  4  5  1  0
  5  6  2  0
  1  6  1  0
  2  7  1  0
  7  8  2  0
  7  9  1  0
  6 10  1  0
 11 12  1  0
 12 13  1  0
 13 14  1  0
 10 11  1  0
 12 15  1  0
  1 16  1  0
  3 17  1  0
  4 18  1  0
  5 19  1  0
 11 20  1  0
 11 21  1  0
 12 22  1  0
 13 23  1  0
 13 24  1  0
 14 25  1  0
 15 26  1  0
M  CHG  2   7   1   9  -1
M  END
> <Name>
DFD2009_31R

> <Clean Energy>
0.0614844

$$$$
DFD2009_31S
  SciTegic12132405553D

 26 26  0  0  0  0            999 V2000
   -7.7578    2.0686    0.0485 C   0  0
   -8.9134    1.4156   -0.0668 C   0  0
   -8.8972   -0.0416   -0.2574 C   0  0
   -7.7414   -0.6951   -0.3133 C   0  0
   -6.4747    0.0234   -0.1865 C   0  0
   -6.4744    1.3585   -0.0115 C   0  0
  -10.1280    2.1654    0.0002 N   0  3
  -10.0606    3.3287    0.1544 O   0  0
  -11.3490    1.6061   -0.1045 O   0  5
   -5.2885    2.1603    0.1241 O   0  0
   -4.0308    1.4667    0.0656 C   0  0
   -2.8918    2.4756    0.2301 C   0  0  2  0  0  0
   -1.5522    1.7343    0.1709 C   0  0
   -0.4874    2.6718    0.3264 O   0  0
   -3.0174    3.1318    1.4900 O   0  0
   -7.7626    3.1196    0.1862 H   0  0
   -9.8051   -0.5764   -0.3509 H   0  0
   -7.7380   -1.7466   -0.4510 H   0  0
   -5.5782   -0.5337   -0.2364 H   0  0
   -3.9304    0.9601   -0.9052 H   0  0
   -3.9777    0.7256    0.8764 H   0  0
   -2.9376    3.2190   -0.5783 H   0  0
   -1.5103    0.9910    0.9798 H   0  0
   -1.4580    1.2270   -0.7998 H   0  0
   -0.5324    3.3422   -0.3998 H   0  0
   -2.9763    2.4591    2.2140 H   0  0
  1  2  2  0
  2  3  1  0
  3  4  2  0
  4  5  1  0
  5  6  2  0
  1  6  1  0
  2  7  1  0
  7  8  2  0
  7  9  1  0
  6 10  1  0
 11 12  1  0
 12 13  1  0
 13 14  1  0
 10 11  1  0
 12 15  1  0
  1 16  1  0
  3 17  1  0
  4 18  1  0
  5 19  1  0
 11 20  1  0
 11 21  1  0
 12 22  1  0
 13 23  1  0
 13 24  1  0
 14 25  1  0
 15 26  1  0
M  CHG  2   7   1   9  -1
M  END
> <Name>
DFD2009_31S

> <Clean Energy>
0.0840354

$$$$
DFD2009_32R
  SciTegic12132405553D

 40 41  0  0  0  0            999 V2000
  -10.3876    2.8813    0.0755 C   0  0
  -11.5830    2.2975    0.0353 C   0  0
  -11.6849    0.8479   -0.0416 C   0  0
  -10.5826    0.1056   -0.0719 C   0  0
   -9.2610    0.7372   -0.0283 C   0  0
   -9.1592    2.0789    0.0430 C   0  0
   -7.9160    2.7994    0.0907 O   0  0
   -6.7138    2.0122    0.0587 C   0  0
   -5.5010    2.9435    0.1143 C   0  0  1  0  0  0
   -4.2234    2.1026    0.0759 C   0  0
   -3.0853    2.9724    0.1239 O   0  0
   -1.8158    2.3199    0.0923 C   0  0
   -1.6446    0.8364    0.0149 C   0  0
   -0.4240    0.3056   -0.0104 C   0  0
    0.7801    1.1910    0.0385 C   0  0
    0.6078    2.5088    0.1072 C   0  0
   -0.7327    3.0917    0.1350 C   0  0
  -12.7411    3.0753    0.0670 N   0  3
  -12.6623    4.2465    0.1292 O   0  0
  -13.9300    2.4937    0.0271 O   0  5
   -5.5251    3.8225   -1.0082 O   0  0
    2.1249    0.7062    0.0158 O   0  0
    2.2645   -0.7210   -0.0587 C   0  0
  -10.3204    3.9379    0.1315 H   0  0
  -12.6376    0.3833   -0.0736 H   0  0
  -10.6601   -0.9505   -0.1280 H   0  0
   -8.4087    0.1130   -0.0544 H   0  0
   -6.6908    1.3333    0.9235 H   0  0
   -6.6781    1.4269   -0.8716 H   0  0
   -5.5287    3.5309    1.0428 H   0  0
   -4.2094    1.4236    0.9406 H   0  0
   -4.2040    1.5170   -0.8546 H   0  0
   -2.4790    0.1863   -0.0209 H   0  0
   -0.3320   -0.7471   -0.0654 H   0  0
    1.4554    3.1450    0.1423 H   0  0
   -0.8440    4.1447    0.1900 H   0  0
   -5.5000    3.2892   -1.8409 H   0  0
    3.3324   -0.9816   -0.0702 H   0  0
    1.7894   -1.0913   -0.9793 H   0  0
    1.7858   -1.1854    0.8162 H   0  0
  1  2  2  0
  2  3  1  0
  3  4  2  0
  4  5  1  0
  5  6  2  0
  1  6  1  0
  7  8  1  0
  8  9  1  0
  9 10  1  0
 10 11  1  0
 11 12  1  0
  6  7  1  0
 13 14  2  0
 14 15  1  0
 15 16  2  0
 16 17  1  0
 12 13  1  0
 12 17  2  0
  2 18  1  0
 18 19  2  0
 18 20  1  0
  9 21  1  0
 15 22  1  0
 22 23  1  0
  1 24  1  0
  3 25  1  0
  4 26  1  0
  5 27  1  0
  8 28  1  0
  8 29  1  0
  9 30  1  0
 10 31  1  0
 10 32  1  0
 13 33  1  0
 14 34  1  0
 16 35  1  0
 17 36  1  0
 21 37  1  0
 23 38  1  0
 23 39  1  0
 23 40  1  0
M  CHG  2  18   1  20  -1
M  END
> <Name>
DFD2009_32R

> <Clean Energy>
0.283147

$$$$
DFD2009_32S
  SciTegic12132405553D

 40 41  0  0  0  0            999 V2000
  -10.3880    2.8811    0.0810 C   0  0
  -11.5834    2.2970    0.0463 C   0  0
  -11.6852    0.8475   -0.0331 C   0  0
  -10.5828    0.1057   -0.0710 C   0  0
   -9.2613    0.7376   -0.0334 C   0  0
   -9.1595    2.0792    0.0400 C   0  0
   -7.9163    2.8001    0.0824 O   0  0
   -6.7140    2.0134    0.0422 C   0  0
   -5.5012    2.9447    0.0988 C   0  0  2  0  0  0
   -4.2236    2.1038    0.0599 C   0  0
   -3.0856    2.9733    0.1166 O   0  0
   -1.8161    2.3206    0.0908 C   0  0
   -1.6448    0.8371    0.0108 C   0  0
   -0.4242    0.3062   -0.0086 C   0  0
    0.7798    1.1912    0.0494 C   0  0
    0.6074    2.5088    0.1203 C   0  0
   -0.7331    3.0920    0.1417 C   0  0
  -12.7416    3.0744    0.0860 N   0  3
  -12.6628    4.2454    0.1501 O   0  0
  -13.9305    2.4924    0.0514 O   0  5
   -5.5372    3.6987    1.3084 O   0  0
    2.1246    0.7061    0.0334 O   0  0
    2.2643   -0.7209   -0.0437 C   0  0
  -10.3208    3.9376    0.1388 H   0  0
  -12.6379    0.3827   -0.0607 H   0  0
  -10.6603   -0.9503   -0.1288 H   0  0
   -8.4089    0.1138   -0.0654 H   0  0
   -6.6874    1.3320    0.9050 H   0  0
   -6.6818    1.4308   -0.8899 H   0  0
   -5.5199    3.6279   -0.7620 H   0  0
   -4.2133    1.4221    0.9227 H   0  0
   -4.2005    1.5212   -0.8723 H   0  0
   -2.4791    0.1873   -0.0314 H   0  0
   -0.3321   -0.7464   -0.0656 H   0  0
    1.4549    3.1448    0.1619 H   0  0
   -0.8445    4.1449    0.1986 H   0  0
   -5.5202    3.0795    2.0796 H   0  0
    3.3322   -0.9817   -0.0496 H   0  0
    1.7946   -1.0889   -0.9680 H   0  0
    1.7804   -1.1874    0.8272 H   0  0
  1  2  2  0
  2  3  1  0
  3  4  2  0
  4  5  1  0
  5  6  2  0
  1  6  1  0
  7  8  1  0
  8  9  1  0
  9 10  1  0
 10 11  1  0
 11 12  1  0
  6  7  1  0
 13 14  2  0
 14 15  1  0
 15 16  2  0
 16 17  1  0
 12 13  1  0
 12 17  2  0
  2 18  1  0
 18 19  2  0
 18 20  1  0
  9 21  1  0
 15 22  1  0
 22 23  1  0
  1 24  1  0
  3 25  1  0
  4 26  1  0
  5 27  1  0
  8 28  1  0
  8 29  1  0
  9 30  1  0
 10 31  1  0
 10 32  1  0
 13 33  1  0
 14 34  1  0
 16 35  1  0
 17 36  1  0
 21 37  1  0
 23 38  1  0
 23 39  1  0
 23 40  1  0
M  CHG  2  18   1  20  -1
M  END
> <Name>
DFD2009_32S

> <Clean Energy>
0.283147

$$$$
DFD2009_33R
  SciTegic12132405553D

 46 47  0  0  0  0            999 V2000
  -10.5031    2.5726    0.2549 C   0  0
  -11.6833    1.9724    0.1066 C   0  0
  -11.7226    0.5460   -0.2455 C   0  0
  -10.5921   -0.1322   -0.4127 C   0  0
   -9.2983    0.5284   -0.2496 C   0  0
   -9.2470    1.8347    0.0729 C   0  0
   -8.0306    2.5795    0.2568 O   0  0
   -6.7997    1.8586    0.0788 C   0  0
   -5.6229    2.8076    0.3119 C   0  0  1  0  0  0
   -4.3303    1.9737    0.1505 C   0  0
   -3.1719    2.7699    0.4016 O   0  0
   -1.9231    2.0808    0.3095 C   0  0
   -1.7956    0.6302   -0.0251 C   0  0
   -0.5925    0.0645   -0.0929 C   0  0
    0.6349    0.8791    0.1654 C   0  0
    0.5005    2.1695    0.4617 C   0  0
   -0.8205    2.7898    0.5358 C   0  0
  -12.8689    2.7468    0.2976 N   0  3
  -12.7571    3.8828    0.5780 O   0  0
  -14.1109    2.2405    0.1725 O   0  5
   -5.7628    3.9089   -0.6424 O   0  0
    1.9634    0.3534    0.1138 O   0  0
    2.0619   -1.0423   -0.2092 C   0  0
   -4.5774    5.1482   -0.5554 S   0  0
   -3.9924    5.2045    0.8433 O   0  0
   -5.2509    6.4722   -0.8616 O   0  0
   -3.2697    4.9035   -1.7988 C   0  0
  -10.4677    3.6011    0.5087 H   0  0
  -12.6507    0.0532   -0.3672 H   0  0
  -10.6288   -1.1611   -0.6667 H   0  0
   -8.4233   -0.0468   -0.3914 H   0  0
   -6.7465    1.0301    0.8000 H   0  0
   -6.7472    1.4608   -0.9450 H   0  0
   -5.6726    3.2060    1.3348 H   0  0
   -4.3542    1.1530    0.8815 H   0  0
   -4.2896    1.5584   -0.8665 H   0  0
   -2.6475    0.0310   -0.2126 H   0  0
   -0.5308   -0.9645   -0.3318 H   0  0
    1.3646    2.7557    0.6463 H   0  0
   -0.9025    3.8204    0.7725 H   0  0
    3.1204   -1.3387   -0.2215 H   0  0
    1.6213   -1.2242   -1.2008 H   0  0
    1.5265   -1.6354    0.5470 H   0  0
   -2.5436    5.7262   -1.7320 H   0  0
   -3.7186    4.8913   -2.8020 H   0  0
   -2.7584    3.9517   -1.6189 H   0  0
  1  2  2  0
  2  3  1  0
  3  4  2  0
  4  5  1  0
  5  6  2  0
  1  6  1  0
  7  8  1  0
  8  9  1  0
  9 10  1  0
 10 11  1  0
 11 12  1  0
  6  7  1  0
 13 14  2  0
 14 15  1  0
 15 16  2  0
 16 17  1  0
 12 13  1  0
 12 17  2  0
  2 18  1  0
 18 19  2  0
 18 20  1  0
  9 21  1  0
 15 22  1  0
 22 23  1  0
 21 24  1  0
 24 25  2  0
 24 26  2  0
 24 27  1  0
  1 28  1  0
  3 29  1  0
  4 30  1  0
  5 31  1  0
  8 32  1  0
  8 33  1  0
  9 34  1  0
 10 35  1  0
 10 36  1  0
 13 37  1  0
 14 38  1  0
 16 39  1  0
 17 40  1  0
 23 41  1  0
 23 42  1  0
 23 43  1  0
 27 44  1  0
 27 45  1  0
 27 46  1  0
M  CHG  2  18   1  20  -1
M  END
> <Name>
DFD2009_33R

> <Clean Energy>
6.60124

$$$$
DFD2009_33S
  SciTegic12132405553D

 46 47  0  0  0  0            999 V2000
  -10.5212    2.5735    0.1657 C   0  0
  -11.6975    1.9759   -0.0173 C   0  0
  -11.7313    0.5371   -0.3156 C   0  0
  -10.5994   -0.1544   -0.3999 C   0  0
   -9.3103    0.5041   -0.1980 C   0  0
   -9.2653    1.8214    0.0750 C   0  0
   -8.0544    2.5673    0.2928 O   0  0
   -6.8251    1.8382    0.2090 C   0  0
   -5.6110    2.7709    0.4287 C   0  0  2  0  0  0
   -4.3538    1.9150    0.2665 C   0  0
   -3.1958    2.7450    0.4231 O   0  0
   -1.9416    2.0742    0.2969 C   0  0
   -1.8050    0.6108    0.0211 C   0  0
   -0.5970    0.0609   -0.0823 C   0  0
    0.6274    0.9046    0.0770 C   0  0
    0.4858    2.2050    0.3221 C   0  0
   -0.8409    2.8089    0.4356 C   0  0
  -12.8842    2.7649    0.0853 N   0  3
  -12.7764    3.9101    0.3274 O   0  0
  -14.1228    2.2624   -0.0814 O   0  5
   -5.5452    3.3853    1.7561 O   0  0
    1.9606    0.3971   -0.0184 O   0  0
    2.0670   -1.0101   -0.2836 C   0  0
   -6.8326    4.4435    2.1711 S   0  0
   -7.4482    5.0246    0.9121 O   0  0
   -6.2670    5.5735    3.0098 O   0  0
   -8.0903    3.5957    3.1791 C   0  0
  -10.4889    3.6110    0.3819 H   0  0
  -12.6563    0.0458   -0.4642 H   0  0
  -10.6319   -1.1922   -0.6153 H   0  0
   -8.4334   -0.0810   -0.2726 H   0  0
   -6.8099    1.0367    0.9614 H   0  0
   -6.7479    1.3992   -0.7961 H   0  0
   -5.6163    3.5601   -0.3359 H   0  0
   -4.3516    1.1261    1.0324 H   0  0
   -4.3520    1.4590   -0.7341 H   0  0
   -2.6542   -0.0098   -0.0960 H   0  0
   -0.5295   -0.9768   -0.2778 H   0  0
    1.3479    2.8116    0.4366 H   0  0
   -0.9277    3.8474    0.6313 H   0  0
    3.1285   -1.2907   -0.3363 H   0  0
    1.5807   -1.2434   -1.2425 H   0  0
    1.5803   -1.5764    0.5244 H   0  0
   -8.8841    4.3074    3.4472 H   0  0
   -7.6220    3.2071    4.0945 H   0  0
   -8.5233    2.7644    2.6125 H   0  0
  1  2  2  0
  2  3  1  0
  3  4  2  0
  4  5  1  0
  5  6  2  0
  1  6  1  0
  7  8  1  0
  8  9  1  0
  9 10  1  0
 10 11  1  0
 11 12  1  0
  6  7  1  0
 13 14  2  0
 14 15  1  0
 15 16  2  0
 16 17  1  0
 12 13  1  0
 12 17  2  0
  2 18  1  0
 18 19  2  0
 18 20  1  0
  9 21  1  0
 15 22  1  0
 22 23  1  0
 21 24  1  0
 24 25  2  0
 24 26  2  0
 24 27  1  0
  1 28  1  0
  3 29  1  0
  4 30  1  0
  5 31  1  0
  8 32  1  0
  8 33  1  0
  9 34  1  0
 10 35  1  0
 10 36  1  0
 13 37  1  0
 14 38  1  0
 16 39  1  0
 17 40  1  0
 23 41  1  0
 23 42  1  0
 23 43  1  0
 27 44  1  0
 27 45  1  0
 27 46  1  0
M  CHG  2  18   1  20  -1
M  END
> <Name>
DFD2009_33S

> <Clean Energy>
6.53229

$$$$
DFD2009_34R
  SciTegic12132405553D

 46 47  0  0  0  0            999 V2000
  -10.7859    2.7215    0.3960 C   0  0
  -11.9834    2.1658    0.2344 C   0  0
  -12.0952    0.7797   -0.1883 C   0  0
  -10.9977    0.0644   -0.4142 C   0  0
   -9.6717    0.6647   -0.2398 C   0  0
   -9.5618    1.9495    0.1519 C   0  0
   -8.3144    2.6354    0.3530 O   0  0
   -7.1167    1.8774    0.1132 C   0  0
   -5.8989    2.7652    0.3748 C   0  0  1  0  0  0
   -4.6438    1.8912    0.1444 C   0  0
   -3.4501    2.6263    0.4161 O   0  0
   -2.2321    1.8945    0.2634 C   0  0
   -2.1669    0.4653   -0.1496 C   0  0
   -0.9864   -0.1363   -0.2685 C   0  0
    0.2602    0.5838    0.0006 C   0  0
    0.1989    1.8759    0.3737 C   0  0
   -1.0974    2.5436    0.5061 C   0  0
  -13.1330    2.9138    0.4707 N   0  0
   -6.0101    3.9217   -0.5160 O   0  0
    1.4825   -0.1608   -0.1578 O   0  0
    2.7100    0.5448    0.1060 C   0  0
   -4.7744    5.1067   -0.3848 S   0  0
   -4.1644    5.0636    1.0037 O   0  0
   -5.3989    6.4709   -0.6065 O   0  0
   -3.4985    4.8789   -1.6638 C   0  0
  -10.7151    3.7334    0.7047 H   0  0
  -13.0517    0.3399   -0.3162 H   0  0
  -11.0819   -0.9467   -0.7226 H   0  0
   -8.8232    0.0640   -0.4291 H   0  0
   -7.0850    1.0094    0.7875 H   0  0
   -7.0974    1.5344   -0.9314 H   0  0
   -5.9154    3.1089    1.4185 H   0  0
   -4.6886    1.0333    0.8304 H   0  0
   -4.6368    1.5307   -0.8942 H   0  0
   -3.0436   -0.0916   -0.3538 H   0  0
   -0.9472   -1.1541   -0.5630 H   0  0
    1.0697    2.4378    0.5786 H   0  0
   -1.1329    3.5621    0.7996 H   0  0
  -13.0576    3.8621    0.7598 H   0  0
  -14.0285    2.4992    0.3501 H   0  0
    3.5605   -0.1338   -0.0509 H   0  0
    2.7151    0.9008    1.1471 H   0  0
    2.7973    1.4027   -0.5773 H   0  0
   -2.7388    5.6675   -1.5666 H   0  0
   -3.9642    4.9391   -2.6577 H   0  0
   -3.0231    3.8993   -1.5451 H   0  0
  1  2  2  0
  2  3  1  0
  3  4  2  0
  4  5  1  0
  5  6  2  0
  1  6  1  0
  7  8  1  0
  8  9  1  0
  9 10  1  0
 10 11  1  0
 11 12  1  0
  6  7  1  0
 13 14  2  0
 14 15  1  0
 15 16  2  0
 16 17  1  0
 12 13  1  0
 12 17  2  0
  2 18  1  0
  9 19  1  0
 15 20  1  0
 20 21  1  0
 19 22  1  0
 22 23  2  0
 22 24  2  0
 22 25  1  0
  1 26  1  0
  3 27  1  0
  4 28  1  0
  5 29  1  0
  8 30  1  0
  8 31  1  0
  9 32  1  0
 10 33  1  0
 10 34  1  0
 13 35  1  0
 14 36  1  0
 16 37  1  0
 17 38  1  0
 18 39  1  0
 18 40  1  0
 21 41  1  0
 21 42  1  0
 21 43  1  0
 25 44  1  0
 25 45  1  0
 25 46  1  0
M  END
> <Name>
DFD2009_34R

> <Clean Energy>
6.28554

$$$$
DFD2009_34S
  SciTegic12132405553D

 46 47  0  0  0  0            999 V2000
  -10.8015    2.7362    0.2832 C   0  0
  -11.9952    2.1877    0.0774 C   0  0
  -12.1011    0.7877   -0.2988 C   0  0
  -11.0019    0.0529   -0.4370 C   0  0
   -9.6804    0.6457   -0.2122 C   0  0
   -9.5771    1.9430    0.1358 C   0  0
   -8.3347    2.6252    0.3820 O   0  0
   -7.1380    1.8517    0.2416 C   0  0
   -5.8836    2.7187    0.5003 C   0  0  2  0  0  0
   -4.6653    1.8222    0.2739 C   0  0
   -3.4717    2.5927    0.4642 O   0  0
   -2.2484    1.8786    0.2846 C   0  0
   -2.1747    0.4342   -0.0757 C   0  0
   -0.9896   -0.1520   -0.2234 C   0  0
    0.2543    0.5984   -0.0379 C   0  0
    0.1860    1.9030    0.2875 C   0  0
   -1.1155    2.5548    0.4517 C   0  0
  -13.1461    2.9563    0.2227 N   0  0
   -5.7791    3.2515    1.8601 O   0  0
    1.4817   -0.1318   -0.2216 O   0  0
    2.7067    0.6034   -0.0398 C   0  0
   -7.0166    4.3363    2.3511 S   0  0
   -7.6192    5.0150    1.1354 O   0  0
   -6.3958    5.3909    3.2470 O   0  0
   -8.2991    3.4840    3.3234 C   0  0
  -10.7339    3.7583    0.5581 H   0  0
  -13.0546    0.3534   -0.4625 H   0  0
  -11.0817   -0.9684   -0.7113 H   0  0
   -8.8296    0.0300   -0.3307 H   0  0
   -7.1495    1.0079    0.9463 H   0  0
   -7.0890    1.4691   -0.7880 H   0  0
   -5.8628    3.5507   -0.2173 H   0  0
   -4.6891    0.9906    0.9928 H   0  0
   -4.6923    1.4255   -0.7513 H   0  0
   -3.0486   -0.1453   -0.2190 H   0  0
   -0.9447   -1.1799   -0.4797 H   0  0
    1.0548    2.4864    0.4318 H   0  0
   -1.1555    3.5828    0.7081 H   0  0
  -13.0744    3.9140    0.4802 H   0  0
  -14.0391    2.5471    0.0690 H   0  0
    3.5616   -0.0669   -0.2081 H   0  0
    2.7508    1.0001    0.9855 H   0  0
    2.7486    1.4351   -0.7590 H   0  0
   -9.0596    4.2112    3.6418 H   0  0
   -7.8389    3.0234    4.2090 H   0  0
   -8.7722    2.7059    2.7147 H   0  0
  1  2  2  0
  2  3  1  0
  3  4  2  0
  4  5  1  0
  5  6  2  0
  1  6  1  0
  7  8  1  0
  8  9  1  0
  9 10  1  0
 10 11  1  0
 11 12  1  0
  6  7  1  0
 13 14  2  0
 14 15  1  0
 15 16  2  0
 16 17  1  0
 12 13  1  0
 12 17  2  0
  2 18  1  0
  9 19  1  0
 15 20  1  0
 20 21  1  0
 19 22  1  0
 22 23  2  0
 22 24  2  0
 22 25  1  0
  1 26  1  0
  3 27  1  0
  4 28  1  0
  5 29  1  0
  8 30  1  0
  8 31  1  0
  9 32  1  0
 10 33  1  0
 10 34  1  0
 13 35  1  0
 14 36  1  0
 16 37  1  0
 17 38  1  0
 18 39  1  0
 18 40  1  0
 21 41  1  0
 21 42  1  0
 21 43  1  0
 25 44  1  0
 25 45  1  0
 25 46  1  0
M  END
> <Name>
DFD2009_34S

> <Clean Energy>
6.23295

$$$$
DFD2009_35R
  SciTegic12132405553D

 63 64  0  0  0  0            999 V2000
   -9.8175    2.9272    0.1997 C   0  0
  -11.0281    2.4786   -0.1209 C   0  0
  -11.1650    1.1972   -0.8160 C   0  0
  -10.0836    0.4885   -1.1224 C   0  0
   -8.7498    0.9786   -0.7708 C   0  0
   -8.6134    2.1566   -0.1319 C   0  0
   -7.3537    2.7292    0.2585 O   0  0
   -6.1740    1.9743   -0.0657 C   0  0
   -4.9404    2.7361    0.4218 C   0  0  1  0  0  0
   -3.7078    1.8636    0.0878 C   0  0
   -2.5052    2.4756    0.5549 O   0  0
   -1.3082    1.7300    0.3236 C   0  0
   -1.2722    0.4048   -0.3545 C   0  0
   -0.1097   -0.2180   -0.5292 C   0  0
    1.1451    0.3777   -0.0647 C   0  0
    1.1100    1.5760    0.5478 C   0  0
   -0.1662    2.2664    0.7430 C   0  0
  -12.1525    3.2568    0.2211 N   0  0
   -4.9575    4.0457   -0.2323 O   0  0
    2.3463   -0.3796   -0.3038 O   0  0
    3.5817    0.2038    0.1518 C   0  0
   -3.6876    5.1235    0.1854 S   0  0
   -3.1594    4.7867    1.5672 O   0  0
   -4.2469    6.5331    0.2018 O   0  0
   -2.3506    5.0837   -1.0503 C   0  0
  -13.6050    2.7942   -0.1129 P   0  0
  -13.7105    2.6008   -1.4758 O   0  0
  -14.5480    3.9829    0.3419 O   0  0
  -13.8312    1.4257    0.6545 O   0  0
  -15.8893    3.9258   -0.1695 C   0  0
  -16.6664    5.1579    0.3186 C   0  0
  -14.9034    0.6134    0.1392 C   0  0
  -14.9746   -0.6898    0.9471 C   0  0
   -9.7214    3.8554    0.7030 H   0  0
  -12.1227    0.8307   -1.0769 H   0  0
  -10.1877   -0.4389   -1.6257 H   0  0
   -7.9155    0.3852   -1.0323 H   0  0
   -6.2135    0.9926    0.4281 H   0  0
   -6.1084    1.8375   -1.1549 H   0  0
   -5.0033    2.8738    1.5102 H   0  0
   -3.8235    0.8934    0.5916 H   0  0
   -3.6549    1.7088   -0.9993 H   0  0
   -2.1556   -0.0608   -0.7054 H   0  0
   -0.0911   -1.1614   -1.0129 H   0  0
    1.9877    2.0466    0.9002 H   0  0
   -0.1810    3.2105    1.2258 H   0  0
  -12.0164    4.1223    0.6900 H   0  0
    4.4143   -0.4716   -0.0914 H   0  0
    3.5400    0.3534    1.2410 H   0  0
    3.7396    1.1714   -0.3475 H   0  0
   -1.5687    5.8020   -0.7657 H   0  0
   -2.7567    5.3550   -2.0351 H   0  0
   -1.9199    4.0779   -1.1004 H   0  0
  -16.3894    3.0243    0.1891 H   0  0
  -15.8631    3.9213   -1.2684 H   0  0
  -17.6941    5.1206   -0.0706 H   0  0
  -16.1699    6.0702   -0.0425 H   0  0
  -16.6900    5.1635    1.4179 H   0  0
  -14.7076    0.3781   -0.9166 H   0  0
  -15.8539    1.1409    0.2263 H   0  0
  -15.7894   -1.3178    0.5587 H   0  0
  -15.1641   -0.4548    2.0044 H   0  0
  -14.0200   -1.2285    0.8560 H   0  0
  1  2  2  0
  2  3  1  0
  3  4  2  0
  4  5  1  0
  5  6  2  0
  1  6  1  0
  7  8  1  0
  8  9  1  0
  9 10  1  0
 10 11  1  0
 11 12  1  0
  6  7  1  0
 13 14  2  0
 14 15  1  0
 15 16  2  0
 16 17  1  0
 12 13  1  0
 12 17  2  0
  2 18  1  0
  9 19  1  0
 15 20  1  0
 20 21  1  0
 19 22  1  0
 22 23  2  0
 22 24  2  0
 22 25  1  0
 18 26  1  0
 26 27  2  0
 26 28  1  0
 26 29  1  0
 30 31  1  0
 28 30  1  0
 32 33  1  0
 29 32  1  0
  1 34  1  0
  3 35  1  0
  4 36  1  0
  5 37  1  0
  8 38  1  0
  8 39  1  0
  9 40  1  0
 10 41  1  0
 10 42  1  0
 13 43  1  0
 14 44  1  0
 16 45  1  0
 17 46  1  0
 18 47  1  0
 21 48  1  0
 21 49  1  0
 21 50  1  0
 25 51  1  0
 25 52  1  0
 25 53  1  0
 30 54  1  0
 30 55  1  0
 31 56  1  0
 31 57  1  0
 31 58  1  0
 32 59  1  0
 32 60  1  0
 33 61  1  0
 33 62  1  0
 33 63  1  0
M  END
> <Name>
DFD2009_35R

> <Clean Energy>
10.1134

$$$$
DFD2009_35S
  SciTegic12132405553D

 63 64  0  0  0  0            999 V2000
   -9.8350    2.9044    0.2369 C   0  0
  -11.0409    2.4621   -0.1081 C   0  0
  -11.1731    1.1632   -0.7712 C   0  0
  -10.0922    0.4327   -1.0235 C   0  0
   -8.7641    0.9161   -0.6438 C   0  0
   -8.6329    2.1100   -0.0351 C   0  0
   -7.3789    2.6792    0.3817 O   0  0
   -6.2030    1.9048    0.1219 C   0  0
   -4.9319    2.6517    0.5894 C   0  0  2  0  0  0
   -3.7356    1.7726    0.2215 C   0  0
   -2.5256    2.4409    0.6009 O   0  0
   -1.3204    1.7300    0.3168 C   0  0
   -1.2802    0.3866   -0.3275 C   0  0
   -0.1102   -0.2041   -0.5552 C   0  0
    1.1496    0.4433   -0.1830 C   0  0
    1.1117    1.6567    0.3989 C   0  0
   -0.1731    2.3129    0.6525 C   0  0
  -12.1647    3.2631    0.1775 N   0  0
   -4.8611    2.8931    2.0318 O   0  0
    2.3586   -0.2829   -0.4738 O   0  0
    3.5992    0.3511   -0.1088 C   0  0
   -6.0804    3.9037    2.6963 S   0  0
   -6.6152    4.8373    1.6267 O   0  0
   -5.4595    4.7301    3.8061 O   0  0
   -7.4249    2.9232    3.4361 C   0  0
  -13.6125    2.8080   -0.1862 P   0  0
  -13.6805    2.5770   -1.5455 O   0  0
  -14.5538    4.0198    0.2070 O   0  0
  -13.8777    1.4647    0.6126 O   0  0
  -15.8809    3.9624   -0.3402 C   0  0
  -16.6568    5.2166    0.0896 C   0  0
  -14.9431    0.6494    0.0880 C   0  0
  -15.0538   -0.6292    0.9301 C   0  0
   -9.7412    3.8450    0.7176 H   0  0
  -12.1271    0.8012   -1.0516 H   0  0
  -10.1928   -0.5074   -1.5035 H   0  0
   -7.9293    0.3055   -0.8609 H   0  0
   -6.2675    0.9366    0.6389 H   0  0
   -6.1282    1.7374   -0.9622 H   0  0
   -4.8577    3.6104    0.0576 H   0  0
   -3.8133    0.8142    0.7547 H   0  0
   -3.7370    1.5933   -0.8634 H   0  0
   -2.1665   -0.1168   -0.6124 H   0  0
   -0.0892   -1.1598   -1.0139 H   0  0
    1.9929    2.1639    0.6854 H   0  0
   -0.1892    3.2686    1.1115 H   0  0
  -12.0316    4.1399    0.6259 H   0  0
    4.4375   -0.3048   -0.3837 H   0  0
    3.6172    0.5300    0.9767 H   0  0
    3.6956    1.3087   -0.6419 H   0  0
   -8.1728    3.6000    3.8729 H   0  0
   -7.0129    2.2753    4.2227 H   0  0
   -7.8999    2.3034    2.6679 H   0  0
  -16.4013    3.0773    0.0303 H   0  0
  -15.8240    3.9252   -1.4373 H   0  0
  -17.6737    5.1790   -0.3272 H   0  0
  -16.1398    6.1125   -0.2837 H   0  0
  -16.7111    5.2548    1.1872 H   0  0
  -14.7181    0.3816   -0.9542 H   0  0
  -15.8897    1.1892    0.1307 H   0  0
  -15.8636   -1.2594    0.5350 H   0  0
  -15.2725   -0.3617    1.9740 H   0  0
  -14.1032   -1.1803    0.8838 H   0  0
  1  2  2  0
  2  3  1  0
  3  4  2  0
  4  5  1  0
  5  6  2  0
  1  6  1  0
  7  8  1  0
  8  9  1  0
  9 10  1  0
 10 11  1  0
 11 12  1  0
  6  7  1  0
 13 14  2  0
 14 15  1  0
 15 16  2  0
 16 17  1  0
 12 13  1  0
 12 17  2  0
  2 18  1  0
  9 19  1  0
 15 20  1  0
 20 21  1  0
 19 22  1  0
 22 23  2  0
 22 24  2  0
 22 25  1  0
 18 26  1  0
 26 27  2  0
 26 28  1  0
 26 29  1  0
 30 31  1  0
 28 30  1  0
 32 33  1  0
 29 32  1  0
  1 34  1  0
  3 35  1  0
  4 36  1  0
  5 37  1  0
  8 38  1  0
  8 39  1  0
  9 40  1  0
 10 41  1  0
 10 42  1  0
 13 43  1  0
 14 44  1  0
 16 45  1  0
 17 46  1  0
 18 47  1  0
 21 48  1  0
 21 49  1  0
 21 50  1  0
 25 51  1  0
 25 52  1  0
 25 53  1  0
 30 54  1  0
 30 55  1  0
 31 56  1  0
 31 57  1  0
 31 58  1  0
 32 59  1  0
 32 60  1  0
 33 61  1  0
 33 62  1  0
 33 63  1  0
M  END
> <Name>
DFD2009_35S

> <Clean Energy>
10.0591

$$$$
DFD2009_36R
  SciTegic12132405553D

 58 59  0  0  0  0            999 V2000
   -9.8685    3.0207    0.3816 C   0  0
  -11.0999    2.6315    0.0626 C   0  0
  -11.2944    1.3909   -0.6902 C   0  0
  -10.2446    0.6593   -1.0487 C   0  0
   -8.8881    1.0840   -0.6981 C   0  0
   -8.6989    2.2249   -0.0077 C   0  0
   -7.4135    2.7342    0.3855 O   0  0
   -6.2659    1.9534    0.0103 C   0  0
   -4.9994    2.6564    0.5053 C   0  0  1  0  0  0
   -3.7705    1.8287    0.1142 C   0  0
   -2.5887    2.4932    0.5806 O   0  0
   -1.3581    1.8356    0.2883 C   0  0
   -1.2607    0.5426   -0.4450 C   0  0
   -0.0680   -0.0009   -0.6735 C   0  0
    1.1611    0.6515   -0.2158 C   0  0
    1.0708    1.8202    0.4463 C   0  0
   -0.2392    2.4234    0.7014 C   0  0
  -12.1882    3.4336    0.4640 N   0  0
   -4.9054    3.9567   -0.0896 N   0  0
    2.3989   -0.0211   -0.5150 O   0  0
    3.6089    0.6183   -0.0660 C   0  0
  -13.6656    3.0490    0.1356 P   0  0
  -13.7827    2.9416   -1.2358 O   0  0
  -14.5469    4.2490    0.7317 O   0  0
  -13.9326    1.6447    0.8118 O   0  0
  -15.9882    4.2424    0.5211 C   0  0
  -16.3586    4.3463   -0.9743 C   0  0
  -15.0152    0.9021    0.2139 C   0  0
  -15.1536   -0.4473    0.9312 C   0  0
   -4.0404    4.6891    0.2307 N   0  3
   -3.1750    5.4216    0.5511 N   0  5
   -9.7304    3.9196    0.9266 H   0  0
  -12.2684    1.0721   -0.9515 H   0  0
  -10.3906   -0.2387   -1.5934 H   0  0
   -8.0799    0.4749   -1.0021 H   0  0
   -6.3307    0.9552    0.4669 H   0  0
   -6.2227    1.8569   -1.0843 H   0  0
   -5.0253    2.7554    1.5994 H   0  0
   -3.8428    0.8324    0.5736 H   0  0
   -3.7334    1.7295   -0.9801 H   0  0
   -2.1236    0.0380   -0.7928 H   0  0
   -0.0059   -0.9216   -1.1957 H   0  0
    1.9279    2.3290    0.7962 H   0  0
   -0.2970    3.3441    1.2241 H   0  0
  -12.0092    4.2684    0.9726 H   0  0
    4.4738    0.0051   -0.3565 H   0  0
    3.5873    0.7225    1.0292 H   0  0
    3.6951    1.6126   -0.5292 H   0  0
  -16.4198    5.1086    1.0426 H   0  0
  -16.4159    3.3264    0.9437 H   0  0
  -17.4529    4.3506   -1.0788 H   0  0
  -15.9459    3.4875   -1.5184 H   0  0
  -15.9467    5.2772   -1.3894 H   0  0
  -14.7944    0.7293   -0.8491 H   0  0
  -15.9510    1.4560    0.3060 H   0  0
  -15.9758   -1.0201    0.4786 H   0  0
  -15.3681   -0.2752    1.9957 H   0  0
  -14.2146   -1.0113    0.8323 H   0  0
  1  2  2  0
  2  3  1  0
  3  4  2  0
  4  5  1  0
  5  6  2  0
  1  6  1  0
  7  8  1  0
  8  9  1  0
  9 10  1  0
 10 11  1  0
 11 12  1  0
  6  7  1  0
 13 14  2  0
 14 15  1  0
 15 16  2  0
 16 17  1  0
 12 13  1  0
 12 17  2  0
  2 18  1  0
  9 19  1  0
 15 20  1  0
 20 21  1  0
 18 22  1  0
 22 23  2  0
 22 24  1  0
 22 25  1  0
 26 27  1  0
 24 26  1  0
 28 29  1  0
 25 28  1  0
 19 30  2  0
 30 31  2  0
  1 32  1  0
  3 33  1  0
  4 34  1  0
  5 35  1  0
  8 36  1  0
  8 37  1  0
  9 38  1  0
 10 39  1  0
 10 40  1  0
 13 41  1  0
 14 42  1  0
 16 43  1  0
 17 44  1  0
 18 45  1  0
 21 46  1  0
 21 47  1  0
 21 48  1  0
 26 49  1  0
 26 50  1  0
 27 51  1  0
 27 52  1  0
 27 53  1  0
 28 54  1  0
 28 55  1  0
 29 56  1  0
 29 57  1  0
 29 58  1  0
M  CHG  2  30   1  31  -1
M  END
> <Name>
DFD2009_36R

> <Clean Energy>
10.07

$$$$
DFD2009_36S
  SciTegic12132405553D

 58 59  0  0  0  0            999 V2000
   -9.8680    3.0204    0.3806 C   0  0
  -11.0997    2.6315    0.0623 C   0  0
  -11.2947    1.3908   -0.6906 C   0  0
  -10.2452    0.6590   -1.0497 C   0  0
   -8.8886    1.0838   -0.6999 C   0  0
   -8.6992    2.2245   -0.0098 C   0  0
   -7.4154    2.7333    0.3824 O   0  0
   -6.2662    1.9541    0.0081 C   0  0
   -4.9993    2.6560    0.5087 C   0  0  2  0  0  0
   -3.7710    1.8317    0.1150 C   0  0
   -2.5904    2.4971    0.5832 O   0  0
   -1.3585    1.8380    0.2900 C   0  0
   -1.2618    0.5456   -0.4455 C   0  0
   -0.0695    0.0016   -0.6748 C   0  0
    1.1601    0.6521   -0.2161 C   0  0
    1.0708    1.8197    0.4480 C   0  0
   -0.2387    2.4238    0.7041 C   0  0
  -12.1879    3.4335    0.4643 N   0  0
   -5.0594    2.7834    1.9345 N   0  0
    2.3973   -0.0209   -0.5166 O   0  0
    3.6079    0.6170   -0.0668 C   0  0
  -13.6654    3.0487    0.1358 P   0  0
  -13.7821    2.9397   -1.2355 O   0  0
  -14.5471    4.2493    0.7300 O   0  0
  -13.9326    1.6451    0.8134 O   0  0
  -15.9885    4.2422    0.5187 C   0  0
  -16.3582    4.3441   -0.9770 C   0  0
  -15.0148    0.9016    0.2159 C   0  0
  -15.1532   -0.4469    0.9348 C   0  0
   -5.8845    3.4630    2.4291 N   0  3
   -6.7099    4.1428    2.9238 N   0  5
   -9.7291    3.9193    0.9257 H   0  0
  -12.2688    1.0720   -0.9512 H   0  0
  -10.3915   -0.2388   -1.5944 H   0  0
   -8.0804    0.4748   -1.0044 H   0  0
   -6.3316    0.9550    0.4625 H   0  0
   -6.2209    1.8600   -1.0864 H   0  0
   -4.9455    3.6550    0.0541 H   0  0
   -3.8423    0.8341    0.5718 H   0  0
   -3.7336    1.7353   -0.9797 H   0  0
   -2.1250    0.0422   -0.7943 H   0  0
   -0.0082   -0.9184   -1.1985 H   0  0
    1.9283    2.3272    0.7987 H   0  0
   -0.2952    3.3436    1.2284 H   0  0
  -12.0089    4.2682    0.9729 H   0  0
    4.4724    0.0036   -0.3584 H   0  0
    3.5867    0.7195    1.0285 H   0  0
    3.6947    1.6119   -0.5285 H   0  0
  -16.4205    5.1088    1.0389 H   0  0
  -16.4161    3.3266    0.9422 H   0  0
  -17.4525    4.3480   -1.0821 H   0  0
  -15.9451    3.4847   -1.5199 H   0  0
  -15.9464    5.2746   -1.3931 H   0  0
  -14.7935    0.7276   -0.8468 H   0  0
  -15.9508    1.4555    0.3069 H   0  0
  -15.9752   -1.0205    0.4826 H   0  0
  -15.3683   -0.2735    1.9991 H   0  0
  -14.2141   -1.0108    0.8370 H   0  0
  1  2  2  0
  2  3  1  0
  3  4  2  0
  4  5  1  0
  5  6  2  0
  1  6  1  0
  7  8  1  0
  8  9  1  0
  9 10  1  0
 10 11  1  0
 11 12  1  0
  6  7  1  0
 13 14  2  0
 14 15  1  0
 15 16  2  0
 16 17  1  0
 12 13  1  0
 12 17  2  0
  2 18  1  0
  9 19  1  0
 15 20  1  0
 20 21  1  0
 18 22  1  0
 22 23  2  0
 22 24  1  0
 22 25  1  0
 26 27  1  0
 24 26  1  0
 28 29  1  0
 25 28  1  0
 19 30  2  0
 30 31  2  0
  1 32  1  0
  3 33  1  0
  4 34  1  0
  5 35  1  0
  8 36  1  0
  8 37  1  0
  9 38  1  0
 10 39  1  0
 10 40  1  0
 13 41  1  0
 14 42  1  0
 16 43  1  0
 17 44  1  0
 18 45  1  0
 21 46  1  0
 21 47  1  0
 21 48  1  0
 26 49  1  0
 26 50  1  0
 27 51  1  0
 27 52  1  0
 27 53  1  0
 28 54  1  0
 28 55  1  0
 29 56  1  0
 29 57  1  0
 29 58  1  0
M  CHG  2  30   1  31  -1
M  END
> <Name>
DFD2009_36S

> <Clean Energy>
10.056

$$$$
DFD2009_38
  SciTegic12132405553D

 32 32  0  0  0  0            999 V2000
   -7.6948    2.7243    0.7768 C   0  0
   -8.8763    2.4092    0.2506 C   0  0
   -8.9783    1.2664   -0.6733 C   0  0
   -7.8945    0.5559   -0.9767 C   0  0
   -6.6010    0.9084   -0.3942 C   0  0
   -6.5059    1.9408    0.4405 C   0  0
   -5.2757    2.2748    0.9933 O   0  0
  -10.0023    3.1831    0.5952 N   0  0
  -11.4205    2.8685    0.0255 P   0  0
  -11.3681    2.9121   -1.3534 O   0  0
  -12.3655    4.0173    0.5698 O   0  0
  -11.7892    1.4065    0.5147 O   0  0
  -13.6342    4.1279   -0.0953 C   0  0
  -14.4175    5.3037    0.5080 C   0  0
  -12.8253    0.7569   -0.2461 C   0  0
  -13.0414   -0.6570    0.3111 C   0  0
   -7.6157    3.5460    1.4424 H   0  0
   -9.9114    1.0059   -1.0991 H   0  0
   -7.9697   -0.2665   -1.6419 H   0  0
   -5.7381    0.3415   -0.6369 H   0  0
   -4.5852    1.6481    0.6629 H   0  0
   -9.8904    3.9479    1.2198 H   0  0
  -14.2096    3.2103    0.0392 H   0  0
  -13.4718    4.3080   -1.1674 H   0  0
  -15.3896    5.3943    0.0021 H   0  0
  -13.8449    6.2327    0.3724 H   0  0
  -14.5772    5.1244    1.5811 H   0  0
  -12.5176    0.6911   -1.2994 H   0  0
  -13.7578    1.3173   -0.1716 H   0  0
  -13.8297   -1.1618   -0.2658 H   0  0
  -13.3430   -0.5920    1.3665 H   0  0
  -12.1047   -1.2279    0.2314 H   0  0
  1  2  2  0
  2  3  1  0
  3  4  2  0
  4  5  1  0
  5  6  2  0
  1  6  1  0
  6  7  1  0
  2  8  1  0
  8  9  1  0
  9 10  2  0
  9 11  1  0
  9 12  1  0
 13 14  1  0
 11 13  1  0
 15 16  1  0
 12 15  1  0
  1 17  1  0
  3 18  1  0
  4 19  1  0
  5 20  1  0
  7 21  1  0
  8 22  1  0
 13 23  1  0
 13 24  1  0
 14 25  1  0
 14 26  1  0
 14 27  1  0
 15 28  1  0
 15 29  1  0
 16 30  1  0
 16 31  1  0
 16 32  1  0
M  END
> <Name>
DFD2009_38

> <Clean Energy>
1.97672820091248

$$$$
DFD2009_39R
  SciTegic12132405553D

 40 41  0  0  0  0            999 V2000
   -8.1735    2.6912    0.5325 C   0  0
   -9.3862    2.4631    0.0367 C   0  0
   -9.5468    1.5446   -1.0928 C   0  0
   -8.4838    0.9471   -1.6196 C   0  0
   -7.1502    1.1959   -1.0806 C   0  0
   -6.9892    2.0360   -0.0393 C   0  0
   -5.7205    2.3462    0.5633 O   0  0
  -10.4929    3.1170    0.6141 N   0  0
  -11.9439    2.8835    0.0917 P   0  0
  -11.9876    3.1662   -1.2590 O   0  0
  -12.8614    3.9011    0.8821 O   0  0
  -12.2614    1.3512    0.3465 O   0  0
  -14.1403    4.1523    0.2729 C   0  0
  -14.9057    5.1838    1.1148 C   0  0
  -13.3799    0.8287   -0.3884 C   0  0
  -13.5314   -0.6653   -0.0689 C   0  0
   -4.5687    1.7084   -0.0159 C   0  0
   -3.3094    2.1455    0.7364 C   0  0  1  0  0  0
   -2.0031    2.0192    0.0672 C   0  0
   -2.7197    3.3391    0.4407 O   0  0
   -8.0596    3.3568    1.3506 H   0  0
  -10.5066    1.3534   -1.4946 H   0  0
   -8.6047    0.2842   -2.4377 H   0  0
   -6.3335    0.6997   -1.5300 H   0  0
  -10.3454    3.7382    1.3756 H   0  0
  -14.7216    3.2307    0.2237 H   0  0
  -13.9910    4.5479   -0.7418 H   0  0
  -15.8837    5.3805    0.6524 H   0  0
  -14.3276    6.1180    1.1627 H   0  0
  -15.0523    4.7903    2.1309 H   0  0
  -13.2014    0.9565   -1.4655 H   0  0
  -14.2950    1.3500   -0.1034 H   0  0
  -14.3844   -1.0752   -0.6286 H   0  0
  -13.7045   -0.7927    1.0096 H   0  0
  -12.6126   -1.1959   -0.3583 H   0  0
   -4.4787    2.0031   -1.0714 H   0  0
   -4.6747    0.6156    0.0543 H   0  0
   -3.2794    1.8955    1.8061 H   0  0
   -1.0747    2.0810    0.6532 H   0  0
   -1.9043    2.1430   -1.0217 H   0  0
  1  2  2  0
  2  3  1  0
  3  4  2  0
  4  5  1  0
  5  6  2  0
  1  6  1  0
  6  7  1  0
  2  8  1  0
  8  9  1  0
  9 10  2  0
  9 11  1  0
  9 12  1  0
 13 14  1  0
 11 13  1  0
 15 16  1  0
 12 15  1  0
 17 18  1  0
 18 19  1  0
  7 17  1  0
 18 20  1  0
 20 19  1  0
  1 21  1  0
  3 22  1  0
  4 23  1  0
  5 24  1  0
  8 25  1  0
 13 26  1  0
 13 27  1  0
 14 28  1  0
 14 29  1  0
 14 30  1  0
 15 31  1  0
 15 32  1  0
 16 33  1  0
 16 34  1  0
 16 35  1  0
 17 36  1  0
 17 37  1  0
 18 38  1  0
 19 39  1  0
 19 40  1  0
M  END
> <Name>
DFD2009_39R

> <Clean Energy>
56.852

$$$$
DFD2009_39S
  SciTegic12132405553D

 40 41  0  0  0  0            999 V2000
   -8.1667    2.7320    0.5847 C   0  0
   -9.3588    2.5326    0.0286 C   0  0
   -9.4832    1.6171   -1.1079 C   0  0
   -8.4106    0.9885   -1.5756 C   0  0
   -7.0980    1.2011   -0.9610 C   0  0
   -6.9747    2.0432    0.0827 C   0  0
   -5.7415    2.3190    0.7641 O   0  0
  -10.4737    3.2117    0.5575 N   0  0
  -11.9081    3.0028   -0.0165 P   0  0
  -11.9059    3.3339   -1.3566 O   0  0
  -12.8438    3.9963    0.7860 O   0  0
  -12.2421    1.4640    0.1716 O   0  0
  -14.1123    4.2664    0.1643 C   0  0
  -14.8934    5.2680    1.0285 C   0  0
  -13.3359    0.9754   -0.6228 C   0  0
  -13.5024   -0.5293   -0.3683 C   0  0
   -4.5764    1.6157    0.3037 C   0  0
   -3.3790    2.0223    1.1664 C   0  0  2  0  0  0
   -2.6430    3.2724    0.8633 C   0  0
   -2.1094    1.8253    0.7184 O   0  0
   -8.0798    3.3941    1.4078 H   0  0
  -10.4265    1.4531   -1.5605 H   0  0
   -8.5051    0.3265   -2.3989 H   0  0
   -6.2692    0.6796   -1.3590 H   0  0
  -10.3452    3.8272    1.3270 H   0  0
  -14.6914    3.3465    0.0752 H   0  0
  -13.9469    4.6959   -0.8338 H   0  0
  -15.8640    5.4795    0.5570 H   0  0
  -14.3178    6.2005    1.1185 H   0  0
  -15.0564    4.8394    2.0280 H   0  0
  -13.1186    1.1444   -1.6870 H   0  0
  -14.2592    1.4889   -0.3506 H   0  0
  -14.3359   -0.9135   -0.9737 H   0  0
  -13.7136   -0.6988    0.6974 H   0  0
  -12.5750   -1.0512   -0.6463 H   0  0
   -4.3735    1.8634   -0.7469 H   0  0
   -4.7419    0.5323    0.4044 H   0  0
   -3.4894    1.8248    2.2442 H   0  0
   -2.4794    3.6273   -0.1731 H   0  0
   -1.9764    3.6989    1.6261 H   0  0
  1  2  2  0
  2  3  1  0
  3  4  2  0
  4  5  1  0
  5  6  2  0
  1  6  1  0
  6  7  1  0
  2  8  1  0
  8  9  1  0
  9 10  2  0
  9 11  1  0
  9 12  1  0
 13 14  1  0
 11 13  1  0
 15 16  1  0
 12 15  1  0
 17 18  1  0
 18 19  1  0
  7 17  1  0
 18 20  1  0
 20 19  1  0
  1 21  1  0
  3 22  1  0
  4 23  1  0
  5 24  1  0
  8 25  1  0
 13 26  1  0
 13 27  1  0
 14 28  1  0
 14 29  1  0
 14 30  1  0
 15 31  1  0
 15 32  1  0
 16 33  1  0
 16 34  1  0
 16 35  1  0
 17 36  1  0
 17 37  1  0
 18 38  1  0
 19 39  1  0
 19 40  1  0
M  END
> <Name>
DFD2009_39S

> <Clean Energy>
56.9229

$$$$
DFD2009_40R
  SciTegic12132405553D

 57 58  0  0  0  0            999 V2000
   -9.6302    3.0870   -0.1530 C   0  0
  -10.8511    2.6452    0.1367 C   0  0
  -11.0153    1.3403    0.7801 C   0  0
   -9.9484    0.6036    1.0707 C   0  0
   -8.6035    1.0860    0.7531 C   0  0
   -8.4418    2.2855    0.1618 C   0  0
   -7.1691    2.8529   -0.1924 O   0  0
   -6.0052    2.0677    0.1156 C   0  0
   -4.7538    2.8255   -0.3329 C   0  0  1  0  0  0
   -3.5175    1.9850   -0.0074 C   0  0
   -2.3436    2.6906   -0.4300 O   0  0
   -1.1073    2.0184   -0.1896 C   0  0
   -1.0015    0.6775    0.4525 C   0  0
    0.1940    0.1243    0.6380 C   0  0
    1.4185    0.8109    0.2210 C   0  0
    1.3214    2.0220   -0.3588 C   0  0
    0.0082    2.6370   -0.5661 C   0  0
  -11.9596    3.4533   -0.1870 N   0  0
   -4.8156    3.0549   -1.7388 O   0  0
    2.6596    0.1237    0.4683 O   0  0
    3.8655    0.7964    0.0593 C   0  0
  -13.4226    3.0003    0.1125 P   0  0
  -13.5465    2.7545    1.4653 O   0  0
  -14.3427    4.2203   -0.3045 O   0  0
  -13.6600    1.6670   -0.7114 O   0  0
  -15.6896    4.1646    0.1924 C   0  0
  -16.4431    5.4265   -0.2545 C   0  0
  -14.7515    0.8524   -0.2429 C   0  0
  -14.8319   -0.4166   -1.1029 C   0  0
   -9.5142    4.0323   -0.6188 H   0  0
  -11.9815    0.9788    1.0160 H   0  0
  -10.0724   -0.3409    1.5365 H   0  0
   -7.7813    0.4700    1.0006 H   0  0
   -5.9532    1.8891    1.1994 H   0  0
   -6.0553    1.1059   -0.4153 H   0  0
   -4.6957    3.7876    0.1952 H   0  0
   -3.4744    1.8070    1.0768 H   0  0
   -3.5840    1.0240   -0.5377 H   0  0
   -1.8607    0.1465    0.7689 H   0  0
    0.2617   -0.8299    1.0954 H   0  0
    2.1753    2.5566   -0.6765 H   0  0
   -0.0546    3.5913   -1.0239 H   0  0
  -11.8052    4.3342   -0.6204 H   0  0
   -4.8678    2.1863   -2.2092 H   0  0
    4.7335    0.1677    0.3039 H   0  0
    3.9505    1.7570    0.5889 H   0  0
    3.8391    0.9749   -1.0260 H   0  0
  -15.6737    4.1174    1.2904 H   0  0
  -16.2000    3.2855   -0.2051 H   0  0
  -17.4749    5.3903    0.1238 H   0  0
  -16.4563    5.4748   -1.3530 H   0  0
  -15.9362    6.3164    0.1458 H   0  0
  -15.6924    1.3980   -0.3214 H   0  0
  -14.5739    0.5724    0.8052 H   0  0
  -15.6615   -1.0463   -0.7504 H   0  0
  -13.8871   -0.9736   -1.0208 H   0  0
  -15.0031   -0.1369   -2.1524 H   0  0
  1  2  2  0
  2  3  1  0
  3  4  2  0
  4  5  1  0
  5  6  2  0
  1  6  1  0
  7  8  1  0
  8  9  1  0
  9 10  1  0
 10 11  1  0
 11 12  1  0
  6  7  1  0
 13 14  2  0
 14 15  1  0
 15 16  2  0
 16 17  1  0
 12 13  1  0
 12 17  2  0
  2 18  1  0
  9 19  1  0
 15 20  1  0
 20 21  1  0
 18 22  1  0
 22 23  2  0
 22 24  1  0
 22 25  1  0
 26 27  1  0
 24 26  1  0
 28 29  1  0
 25 28  1  0
  1 30  1  0
  3 31  1  0
  4 32  1  0
  5 33  1  0
  8 34  1  0
  8 35  1  0
  9 36  1  0
 10 37  1  0
 10 38  1  0
 13 39  1  0
 14 40  1  0
 16 41  1  0
 17 42  1  0
 18 43  1  0
 19 44  1  0
 21 45  1  0
 21 46  1  0
 21 47  1  0
 26 48  1  0
 26 49  1  0
 27 50  1  0
 27 51  1  0
 27 52  1  0
 28 53  1  0
 28 54  1  0
 29 55  1  0
 29 56  1  0
 29 57  1  0
M  END
> <Name>
DFD2009_40R

> <Clean Energy>
5.32404

$$$$
DFD2009_40S
  SciTegic12132405553D

 57 58  0  0  0  0            999 V2000
   -9.6303    3.0873   -0.1514 C   0  0
  -10.8511    2.6461    0.1395 C   0  0
  -11.0153    1.3412    0.7829 C   0  0
   -9.9485    0.6039    1.0722 C   0  0
   -8.6036    1.0855    0.7529 C   0  0
   -8.4420    2.2850    0.1616 C   0  0
   -7.1694    2.8514   -0.1950 O   0  0
   -6.0057    2.0642    0.1091 C   0  0
   -4.7544    2.8219   -0.3398 C   0  0  2  0  0  0
   -3.5180    1.9819   -0.0135 C   0  0
   -2.3439    2.6897   -0.4315 O   0  0
   -1.1073    2.0185   -0.1891 C   0  0
   -1.0016    0.6770    0.4517 C   0  0
    0.1940    0.1243    0.6383 C   0  0
    1.4187    0.8122    0.2237 C   0  0
    1.3216    2.0240   -0.3545 C   0  0
    0.0083    2.6385   -0.5629 C   0  0
  -11.9595    3.4547   -0.1833 N   0  0
   -4.6792    4.0674    0.3503 O   0  0
    2.6598    0.1252    0.4712 O   0  0
    3.8658    0.7987    0.0638 C   0  0
  -13.4226    3.0012    0.1152 P   0  0
  -13.5474    2.7552    1.4679 O   0  0
  -14.3427    4.2211   -0.3023 O   0  0
  -13.6591    1.6680   -0.7092 O   0  0
  -15.6899    4.1651    0.1937 C   0  0
  -16.4433    5.4268   -0.2539 C   0  0
  -14.7511    0.8531   -0.2421 C   0  0
  -14.8306   -0.4156   -1.1025 C   0  0
   -9.5144    4.0327   -0.6173 H   0  0
  -11.9814    0.9803    1.0198 H   0  0
  -10.0724   -0.3405    1.5380 H   0  0
   -7.7815    0.4689    0.9990 H   0  0
   -5.9513    1.8847    1.1927 H   0  0
   -6.0583    1.1031   -0.4224 H   0  0
   -4.8017    3.0031   -1.4228 H   0  0
   -3.4777    1.8028    1.0707 H   0  0
   -3.5817    1.0214   -0.5449 H   0  0
   -1.8609    0.1451    0.7662 H   0  0
    0.2616   -0.8303    1.0946 H   0  0
    2.1756    2.5595   -0.6706 H   0  0
   -0.0545    3.5932   -1.0199 H   0  0
  -11.8051    4.3357   -0.6164 H   0  0
   -4.6368    3.8988    1.3241 H   0  0
    4.7338    0.1700    0.3083 H   0  0
    3.9502    1.7588    0.5943 H   0  0
    3.8401    0.9782   -1.0214 H   0  0
  -15.6748    4.1179    1.2917 H   0  0
  -16.1999    3.2859   -0.2042 H   0  0
  -17.4754    5.3905    0.1237 H   0  0
  -16.4558    5.4750   -1.3524 H   0  0
  -15.9368    6.3168    0.1468 H   0  0
  -15.6919    1.3988   -0.3214 H   0  0
  -14.5744    0.5728    0.8061 H   0  0
  -15.6605   -1.0454   -0.7511 H   0  0
  -13.8859   -0.9726   -1.0198 H   0  0
  -15.0008   -0.1355   -2.1521 H   0  0
  1  2  2  0
  2  3  1  0
  3  4  2  0
  4  5  1  0
  5  6  2  0
  1  6  1  0
  7  8  1  0
  8  9  1  0
  9 10  1  0
 10 11  1  0
 11 12  1  0
  6  7  1  0
 13 14  2  0
 14 15  1  0
 15 16  2  0
 16 17  1  0
 12 13  1  0
 12 17  2  0
  2 18  1  0
  9 19  1  0
 15 20  1  0
 20 21  1  0
 18 22  1  0
 22 23  2  0
 22 24  1  0
 22 25  1  0
 26 27  1  0
 24 26  1  0
 28 29  1  0
 25 28  1  0
  1 30  1  0
  3 31  1  0
  4 32  1  0
  5 33  1  0
  8 34  1  0
  8 35  1  0
  9 36  1  0
 10 37  1  0
 10 38  1  0
 13 39  1  0
 14 40  1  0
 16 41  1  0
 17 42  1  0
 18 43  1  0
 19 44  1  0
 21 45  1  0
 21 46  1  0
 21 47  1  0
 26 48  1  0
 26 49  1  0
 27 50  1  0
 27 51  1  0
 27 52  1  0
 28 53  1  0
 28 54  1  0
 29 55  1  0
 29 56  1  0
 29 57  1  0
M  END
> <Name>
DFD2009_40S

> <Clean Energy>
5.32533

$$$$
DFD2009_41S
  SciTegic12132405553D

 32 32  0  0  0  0            999 V2000
   -9.3900    2.4170    0.0790 C   0  0
  -10.5682    1.8263    0.2639 C   0  0
  -10.6669    0.3745    0.2490 C   0  0
   -9.5789   -0.3629    0.0504 C   0  0
   -8.2763    0.2763   -0.1544 C   0  0
   -8.1775    1.6201   -0.1418 C   0  0
   -6.9521    2.3479   -0.3316 O   0  0
   -5.7653    1.5660   -0.5477 C   0  0
   -4.5707    2.5051   -0.7265 C   0  0  2  0  0  0
   -3.3264    1.6241   -0.9878 C   0  0
   -2.1712    2.4214   -1.2083 O   0  0
  -11.7113    2.5990    0.4726 N   0  3
  -11.6349    3.7719    0.4852 O   0  0
  -12.8832    2.0105    0.6565 O   0  5
   -4.4702    3.3174    0.4777 O   0  0
   -3.2245    4.4915    0.4612 S   0  0
   -1.8637    3.8546    0.6699 O   0  0
   -3.2533    5.2466   -0.8538 O   0  0
   -3.5129    5.6481    1.8190 C   0  0
   -9.3249    3.4751    0.0911 H   0  0
  -11.6060   -0.0956    0.3964 H   0  0
   -9.6541   -1.4206    0.0400 H   0  0
   -7.4350   -0.3442   -0.3090 H   0  0
   -5.5874    0.9140    0.3198 H   0  0
   -5.8840    0.9526   -1.4526 H   0  0
   -4.7460    3.1580   -1.5931 H   0  0
   -3.1622    0.9598   -0.1277 H   0  0
   -3.5066    1.0180   -1.8868 H   0  0
   -2.3250    3.0138   -1.9853 H   0  0
   -2.7255    6.4158    1.8199 H   0  0
   -3.4954    5.1031    2.7740 H   0  0
   -4.4937    6.1283    1.6885 H   0  0
  1  2  2  0
  2  3  1  0
  3  4  2  0
  4  5  1  0
  5  6  2  0
  1  6  1  0
  7  8  1  0
  8  9  1  0
  9 10  1  0
 10 11  1  0
  6  7  1  0
  2 12  1  0
 12 13  2  0
 12 14  1  0
  9 15  1  0
 15 16  1  0
 16 17  2  0
 16 18  2  0
 16 19  1  0
  1 20  1  0
  3 21  1  0
  4 22  1  0
  5 23  1  0
  8 24  1  0
  8 25  1  0
  9 26  1  0
 10 27  1  0
 10 28  1  0
 11 29  1  0
 19 30  1  0
 19 31  1  0
 19 32  1  0
M  CHG  2  12   1  14  -1
M  END
> <Name>
DFD2009_41S

> <Clean Energy>
0.414957

$$$$
DFD2009_41R
  SciTegic12132405553D

 32 32  0  0  0  0            999 V2000
   -9.4163    2.3965    0.1327 C   0  0
  -10.5882    1.7941    0.3189 C   0  0
  -10.6794    0.3426    0.2639 C   0  0
   -9.5906   -0.3823    0.0270 C   0  0
   -8.2952    0.2704   -0.1798 C   0  0
   -8.2043    1.6136   -0.1296 C   0  0
   -6.9881    2.3551   -0.3180 O   0  0
   -5.8036    1.5951   -0.5771 C   0  0
   -4.5786    2.5219   -0.7425 C   0  0  1  0  0  0
   -3.3543    1.6260   -0.9669 C   0  0
   -2.1852    2.4380   -1.0944 O   0  0
  -11.7320    2.5540    0.5672 N   0  3
  -11.6616    3.7265    0.6121 O   0  0
  -12.8977    1.9539    0.7524 O   0  5
   -4.6794    3.4235   -1.8827 O   0  0
   -5.9622    4.5544   -1.8081 S   0  0
   -7.2939    3.8984   -2.1200 O   0  0
   -6.0012    5.1927   -0.4329 O   0  0
   -5.6674    5.8326   -3.0503 C   0  0
   -9.3562    3.4544    0.1735 H   0  0
  -11.6134   -0.1370    0.4125 H   0  0
   -9.6600   -1.4397   -0.0127 H   0  0
   -7.4524   -0.3396   -0.3659 H   0  0
   -5.6233    0.9251    0.2759 H   0  0
   -5.9321    0.9982   -1.4914 H   0  0
   -4.4377    3.1094    0.1756 H   0  0
   -3.2381    0.9465   -0.1104 H   0  0
   -3.4961    1.0383   -1.8849 H   0  0
   -2.2895    3.0491   -1.8652 H   0  0
   -6.4789    6.5738   -3.0131 H   0  0
   -5.6360    5.3724   -4.0486 H   0  0
   -4.7075    6.3284   -2.8445 H   0  0
  1  2  2  0
  2  3  1  0
  3  4  2  0
  4  5  1  0
  5  6  2  0
  1  6  1  0
  7  8  1  0
  8  9  1  0
  9 10  1  0
 10 11  1  0
  6  7  1  0
  2 12  1  0
 12 13  2  0
 12 14  1  0
  9 15  1  0
 15 16  1  0
 16 17  2  0
 16 18  2  0
 16 19  1  0
  1 20  1  0
  3 21  1  0
  4 22  1  0
  5 23  1  0
  8 24  1  0
  8 25  1  0
  9 26  1  0
 10 27  1  0
 10 28  1  0
 11 29  1  0
 19 30  1  0
 19 31  1  0
 19 32  1  0
M  CHG  2  12   1  14  -1
M  END
> <Name>
DFD2009_41R

> <Clean Energy>
-0.0429624

$$$$
DFD2009_42R
  SciTegic12132405553D

 53 53  0  0  0  0            999 V2000
  -10.2363    2.5019   -0.6468 C   0  0
  -11.4357    1.9270   -0.5987 C   0  0
  -11.5737    0.5675   -0.0983 C   0  0
  -10.5004   -0.1012    0.3113 C   0  0
   -9.1748    0.5213    0.2631 C   0  0
   -9.0396    1.7799   -0.1990 C   0  0
   -7.7892    2.4839   -0.2892 O   0  0
   -6.6180    1.7754    0.1498 C   0  0
   -5.3932    2.6760   -0.0180 C   0  0  2  0  0  0
   -4.1613    1.8498    0.4249 C   0  0
   -2.9508    2.5838    0.2528 O   0  0
  -12.5634    2.6278   -1.0284 N   0  3
  -12.4553    3.7261   -1.4331 O   0  0
  -13.7563    2.0551   -0.9802 O   0  5
   -5.6400    3.8839    0.7686 O   0  0
   -4.4197    5.0865    0.7173 S   0  0
   -3.6165    4.9562   -0.5633 O   0  0
   -5.0882    6.4476    0.7446 O   0  0
   -3.3418    4.9793    2.1766 C   0  0
   -1.2548    2.1479    0.5244 Si  0  0
   -0.6971    0.7793   -0.6564 C   0  0
   -0.2082    3.6684    0.2345 C   0  0
   -1.0385    1.5831    2.2900 C   0  0
    0.7868    0.4643   -0.4167 C   0  0
   -1.5064   -0.5056   -0.4296 C   0  0
   -0.8932    1.2487   -2.1019 C   0  0
  -10.1427    3.4927   -1.0124 H   0  0
  -12.5296    0.1100   -0.0602 H   0  0
  -10.6042   -1.0918    0.6755 H   0  0
   -8.3462   -0.0428    0.5977 H   0  0
   -6.7247    1.5024    1.2096 H   0  0
   -6.4854    0.8660   -0.4543 H   0  0
   -5.2838    2.9494   -1.0768 H   0  0
   -4.2725    1.5536    1.4770 H   0  0
   -4.1101    0.9524   -0.2016 H   0  0
   -2.5842    5.7746    2.1312 H   0  0
   -2.8445    4.0038    2.1973 H   0  0
   -3.9463    5.0995    3.0867 H   0  0
    0.8488    3.4251    0.4122 H   0  0
   -0.5224    4.4644    0.9242 H   0  0
   -0.3372    4.0094   -0.8025 H   0  0
    0.0176    1.3364    2.4690 H   0  0
   -1.6591    0.6931    2.4677 H   0  0
   -1.3485    2.3890    2.9707 H   0  0
    1.1048   -0.3256   -1.1111 H   0  0
    0.9276    0.1210    0.6169 H   0  0
    1.3884    1.3660   -0.5894 H   0  0
   -1.1572   -1.2794   -1.1270 H   0  0
   -2.5668   -0.3092   -0.6079 H   0  0
   -1.3645   -0.8525    0.6027 H   0  0
   -0.5639    0.4565   -2.7884 H   0  0
   -0.3009    2.1560   -2.2793 H   0  0
   -1.9580    1.4648   -2.2718 H   0  0
  1  2  2  0
  2  3  1  0
  3  4  2  0
  4  5  1  0
  5  6  2  0
  1  6  1  0
  7  8  1  0
  8  9  1  0
  9 10  1  0
 10 11  1  0
  6  7  1  0
  2 12  1  0
 12 13  2  0
 12 14  1  0
  9 15  1  0
 15 16  1  0
 16 17  2  0
 16 18  2  0
 16 19  1  0
 11 20  1  0
 20 21  1  0
 20 22  1  0
 20 23  1  0
 21 24  1  0
 21 25  1  0
 21 26  1  0
  1 27  1  0
  3 28  1  0
  4 29  1  0
  5 30  1  0
  8 31  1  0
  8 32  1  0
  9 33  1  0
 10 34  1  0
 10 35  1  0
 19 36  1  0
 19 37  1  0
 19 38  1  0
 22 39  1  0
 22 40  1  0
 22 41  1  0
 23 42  1  0
 23 43  1  0
 23 44  1  0
 24 45  1  0
 24 46  1  0
 24 47  1  0
 25 48  1  0
 25 49  1  0
 25 50  1  0
 26 51  1  0
 26 52  1  0
 26 53  1  0
M  CHG  2  12   1  14  -1
M  END
> <Name>
DFD2009_42R

> <Clean Energy>
-3.90563

$$$$
DFD2009_42S
  SciTegic12132405553D

 53 53  0  0  0  0            999 V2000
  -10.2755    2.5386   -0.5397 C   0  0
  -11.4815    1.9853   -0.4406 C   0  0
  -11.6187    0.6138    0.0266 C   0  0
  -10.5377   -0.0872    0.3541 C   0  0
   -9.2049    0.5120    0.2480 C   0  0
   -9.0717    1.7812   -0.1829 C   0  0
   -7.8149    2.4662   -0.3266 O   0  0
   -6.6374    1.7283    0.0178 C   0  0
   -5.3692    2.5971   -0.1512 C   0  0  1  0  0  0
   -4.1803    1.7444    0.2889 C   0  0
   -2.9846    2.5179    0.1868 O   0  0
  -12.6167    2.7199   -0.7850 N   0  3
  -12.5087    3.8277   -1.1631 O   0  0
  -13.8166    2.1687   -0.6862 O   0  5
   -5.1027    3.0284   -1.5249 O   0  0
   -6.2806    4.0496   -2.2456 S   0  0
   -7.0350    4.8062   -1.1685 O   0  0
   -5.5641    5.0454   -3.1373 O   0  0
   -7.4251    3.1025   -3.2989 C   0  0
   -1.2951    2.1378    0.5359 Si  0  0
   -0.6347    0.8018   -0.6285 C   0  0
   -0.2898    3.6965    0.3162 C   0  0
   -1.1496    1.5629    2.3051 C   0  0
    0.8449    0.5322   -0.3181 C   0  0
   -1.4128   -0.5104   -0.4546 C   0  0
   -0.7740    1.2806   -2.0776 C   0  0
  -10.1814    3.5381   -0.8814 H   0  0
  -12.5800    0.1732    0.1058 H   0  0
  -10.6406   -1.0863    0.6940 H   0  0
   -8.3694   -0.0768    0.5166 H   0  0
   -6.7120    1.4246    1.0719 H   0  0
   -6.5536    0.8341   -0.6165 H   0  0
   -5.4450    3.4806    0.4978 H   0  0
   -4.3236    1.4227    1.3298 H   0  0
   -4.1071    0.8636   -0.3607 H   0  0
   -8.1475    3.7890   -3.7629 H   0  0
   -7.9622    2.3635   -2.6946 H   0  0
   -6.8547    2.5854   -4.0835 H   0  0
    0.7649    3.4874    0.5451 H   0  0
   -0.6661    4.4726    0.9976 H   0  0
   -0.3775    4.0458   -0.7225 H   0  0
   -0.0960    1.3497    2.5353 H   0  0
   -1.7477    0.6505    2.4433 H   0  0
   -1.5203    2.3502    2.9764 H   0  0
    1.2228   -0.2392   -1.0032 H   0  0
    0.9454    0.1821    0.7180 H   0  0
    1.4244    1.4549   -0.4519 H   0  0
   -1.0052   -1.2651   -1.1411 H   0  0
   -2.4692   -0.3450   -0.6838 H   0  0
   -1.3114   -0.8640    0.5802 H   0  0
   -0.3854    0.5070   -2.7543 H   0  0
   -0.2035    2.2084   -2.2166 H   0  0
   -1.8356    1.4644   -2.2986 H   0  0
  1  2  2  0
  2  3  1  0
  3  4  2  0
  4  5  1  0
  5  6  2  0
  1  6  1  0
  7  8  1  0
  8  9  1  0
  9 10  1  0
 10 11  1  0
  6  7  1  0
  2 12  1  0
 12 13  2  0
 12 14  1  0
  9 15  1  0
 15 16  1  0
 16 17  2  0
 16 18  2  0
 16 19  1  0
 11 20  1  0
 20 21  1  0
 20 22  1  0
 20 23  1  0
 21 24  1  0
 21 25  1  0
 21 26  1  0
  1 27  1  0
  3 28  1  0
  4 29  1  0
  5 30  1  0
  8 31  1  0
  8 32  1  0
  9 33  1  0
 10 34  1  0
 10 35  1  0
 19 36  1  0
 19 37  1  0
 19 38  1  0
 22 39  1  0
 22 40  1  0
 22 41  1  0
 23 42  1  0
 23 43  1  0
 23 44  1  0
 24 45  1  0
 24 46  1  0
 24 47  1  0
 25 48  1  0
 25 49  1  0
 25 50  1  0
 26 51  1  0
 26 52  1  0
 26 53  1  0
M  CHG  2  12   1  14  -1
M  END
> <Name>
DFD2009_42S

> <Clean Energy>
-3.53077

$$$$
DFD2009_43S
  SciTegic12132405553D

 53 53  0  0  0  0            999 V2000
  -10.3960    2.7217    0.9874 C   0  0
  -11.6106    2.1860    1.0707 C   0  0
  -11.8195    0.7903    0.7233 C   0  0
  -10.7942    0.0461    0.3209 C   0  0
   -9.4504    0.6240    0.2246 C   0  0
   -9.2505    1.9176    0.5454 C   0  0
   -7.9777    2.5836    0.4870 O   0  0
   -6.8571    1.7942    0.0538 C   0  0
   -5.5992    2.6642    0.0537 C   0  0  1  0  0  0
   -4.4217    1.7553   -0.3750 C   0  0
   -3.1825    2.4607   -0.3528 O   0  0
  -12.6847    2.9643    1.4919 N   0  0
   -5.8612    3.7941   -0.8370 O   0  0
   -4.6066    4.9528   -0.9836 S   0  0
   -3.7277    4.9251    0.2529 O   0  0
   -5.2368    6.3264   -1.1107 O   0  0
   -3.6270    4.6612   -2.4863 C   0  0
   -1.5202    1.9412   -0.6796 Si  0  0
   -0.9275    0.6803    0.6000 C   0  0
   -0.4147    3.4460   -0.6114 C   0  0
   -1.4323    1.1937   -2.3876 C   0  0
    0.5286    0.2916    0.3051 C   0  0
   -1.7855   -0.5922    0.5558 C   0  0
   -1.0182    1.2998    1.9987 C   0  0
  -10.2540    3.7408    1.2431 H   0  0
  -12.7893    0.3666    0.7909 H   0  0
  -10.9492   -0.9720    0.0680 H   0  0
   -8.6610    0.0005   -0.0993 H   0  0
   -6.7123    0.9465    0.7394 H   0  0
   -7.0385    1.4192   -0.9639 H   0  0
   -5.4152    3.0394    1.0702 H   0  0
   -4.3563    0.9247    0.3365 H   0  0
   -4.6079    1.3582   -1.3824 H   0  0
  -12.5428    3.9192    1.7298 H   0  0
  -13.5929    2.5647    1.5545 H   0  0
   -2.8458    5.4304   -2.5688 H   0  0
   -4.2844    4.7096   -3.3658 H   0  0
   -3.1597    3.6721   -2.4362 H   0  0
    0.6216    3.1496   -0.8265 H   0  0
   -0.4680    3.8943    0.3909 H   0  0
   -0.7495    4.1787   -1.3592 H   0  0
   -0.3971    0.8938   -2.6035 H   0  0
   -1.7620    1.9370   -3.1277 H   0  0
   -2.0879    0.3124   -2.4349 H   0  0
    0.8677   -0.4346    1.0567 H   0  0
    1.1653    1.1848    0.3475 H   0  0
    0.5939   -0.1590   -0.6943 H   0  0
   -1.4149   -1.3032    1.3069 H   0  0
   -1.7193   -1.0463   -0.4419 H   0  0
   -2.8265   -0.3423    0.7765 H   0  0
   -0.6685    0.5701    2.7420 H   0  0
   -2.0635    1.5686    2.2093 H   0  0
   -0.3905    2.1994    2.0458 H   0  0
  1  2  2  0
  2  3  1  0
  3  4  2  0
  4  5  1  0
  5  6  2  0
  1  6  1  0
  7  8  1  0
  8  9  1  0
  9 10  1  0
 10 11  1  0
  6  7  1  0
  2 12  1  0
  9 13  1  0
 13 14  1  0
 14 15  2  0
 14 16  2  0
 14 17  1  0
 11 18  1  0
 18 19  1  0
 18 20  1  0
 18 21  1  0
 19 22  1  0
 19 23  1  0
 19 24  1  0
  1 25  1  0
  3 26  1  0
  4 27  1  0
  5 28  1  0
  8 29  1  0
  8 30  1  0
  9 31  1  0
 10 32  1  0
 10 33  1  0
 12 34  1  0
 12 35  1  0
 17 36  1  0
 17 37  1  0
 17 38  1  0
 20 39  1  0
 20 40  1  0
 20 41  1  0
 21 42  1  0
 21 43  1  0
 21 44  1  0
 22 45  1  0
 22 46  1  0
 22 47  1  0
 23 48  1  0
 23 49  1  0
 23 50  1  0
 24 51  1  0
 24 52  1  0
 24 53  1  0
M  END
> <Name>
DFD2009_43S

> <Clean Energy>
-3.76871

$$$$
DFD2009_43R
  SciTegic12132405553D

 53 53  0  0  0  0            999 V2000
  -10.4411    2.7497    0.8795 C   0  0
  -11.6648    2.2305    0.9103 C   0  0
  -11.8709    0.8260    0.5976 C   0  0
  -10.8333    0.0578    0.2806 C   0  0
   -9.4794    0.6181    0.2439 C   0  0
   -9.2835    1.9194    0.5320 C   0  0
   -8.0013    2.5717    0.5285 O   0  0
   -6.8692    1.7621    0.1923 C   0  0
   -5.5687    2.5990    0.1941 C   0  0  2  0  0  0
   -4.4349    1.6650   -0.2260 C   0  0
   -3.2135    2.4027   -0.2766 O   0  0
  -12.7511    3.0341    1.2429 N   0  0
   -5.2035    3.1579    1.4972 O   0  0
   -6.3038    4.2873    2.1779 S   0  0
   -7.1031    4.9565    1.0756 O   0  0
   -5.5042    5.3430    2.9171 O   0  0
   -7.4058    3.4924    3.3903 C   0  0
   -1.5611    1.9305   -0.6856 Si  0  0
   -0.8667    0.6964    0.5682 C   0  0
   -0.4996    3.4674   -0.6880 C   0  0
   -1.5444    1.1755   -2.3919 C   0  0
    0.5818    0.3453    0.1987 C   0  0
   -1.6916   -0.5987    0.5770 C   0  0
   -0.9003    1.3233    1.9662 C   0  0
  -10.3001    3.7754    1.1098 H   0  0
  -12.8482    0.4151    0.6228 H   0  0
  -10.9860   -0.9667    0.0531 H   0  0
   -8.6796   -0.0237   -0.0116 H   0  0
   -6.7710    0.9346    0.9096 H   0  0
   -7.0190    1.3557   -0.8182 H   0  0
   -5.6602    3.4141   -0.5372 H   0  0
   -4.3458    0.8526    0.5056 H   0  0
   -4.6529    1.2445   -1.2176 H   0  0
  -12.6109    3.9948    1.4571 H   0  0
  -13.6665    2.6467    1.2662 H   0  0
   -8.0775    4.2472    3.8233 H   0  0
   -6.8018    3.0381    4.1885 H   0  0
   -8.0009    2.7151    2.8990 H   0  0
    0.5321    3.1995   -0.9571 H   0  0
   -0.5114    3.9224    0.3128 H   0  0
   -0.8959    4.1835   -1.4216 H   0  0
   -0.5140    0.9035   -2.6618 H   0  0
   -1.9342    1.9036   -3.1170 H   0  0
   -2.1759    0.2754   -2.3994 H   0  0
    0.9802   -0.3658    0.9355 H   0  0
    1.1948    1.2560    0.2020 H   0  0
    0.6065   -0.1106   -0.8001 H   0  0
   -1.2630   -1.2942    1.3116 H   0  0
   -1.6661   -1.0581   -0.4202 H   0  0
   -2.7261   -0.3743    0.8510 H   0  0
   -0.4919    0.6087    2.6941 H   0  0
   -1.9401    1.5653    2.2304 H   0  0
   -0.2958    2.2398    1.9745 H   0  0
  1  2  2  0
  2  3  1  0
  3  4  2  0
  4  5  1  0
  5  6  2  0
  1  6  1  0
  7  8  1  0
  8  9  1  0
  9 10  1  0
 10 11  1  0
  6  7  1  0
  2 12  1  0
  9 13  1  0
 13 14  1  0
 14 15  2  0
 14 16  2  0
 14 17  1  0
 11 18  1  0
 18 19  1  0
 18 20  1  0
 18 21  1  0
 19 22  1  0
 19 23  1  0
 19 24  1  0
  1 25  1  0
  3 26  1  0
  4 27  1  0
  5 28  1  0
  8 29  1  0
  8 30  1  0
  9 31  1  0
 10 32  1  0
 10 33  1  0
 12 34  1  0
 12 35  1  0
 17 36  1  0
 17 37  1  0
 17 38  1  0
 20 39  1  0
 20 40  1  0
 20 41  1  0
 21 42  1  0
 21 43  1  0
 21 44  1  0
 22 45  1  0
 22 46  1  0
 22 47  1  0
 23 48  1  0
 23 49  1  0
 23 50  1  0
 24 51  1  0
 24 52  1  0
 24 53  1  0
M  END
> <Name>
DFD2009_43R

> <Clean Energy>
-3.38201

$$$$
DFD2009_44S
  SciTegic12132405553D

 70 70  0  0  0  0            999 V2000
   -9.6448    2.6957    0.1883 C   0  0
  -10.8624    2.1697    0.0892 C   0  0
  -11.0227    0.7996   -0.4003 C   0  0
   -9.9545    0.0879   -0.7440 C   0  0
   -8.6125    0.6632   -0.6374 C   0  0
   -8.4551    1.9231   -0.1875 C   0  0
   -7.1857    2.5831   -0.0441 O   0  0
   -6.0204    1.8260   -0.4121 C   0  0
   -4.7736    2.6851   -0.1954 C   0  0  1  0  0  0
   -3.5518    1.8083   -0.5624 C   0  0
   -2.3257    2.5016   -0.3395 O   0  0
  -11.9711    2.9514    0.4630 N   0  0
   -4.9362    3.8877   -1.0115 O   0  0
   -3.6770    5.0468   -0.9160 S   0  0
   -2.9447    4.9095    0.4057 O   0  0
   -4.2932    6.4301   -0.9978 O   0  0
   -2.5315    4.8766   -2.3166 C   0  0
   -0.6351    2.0013   -0.5173 Si  0  0
   -0.1879    0.6338    0.7109 C   0  0
    0.4500    3.4883   -0.1970 C   0  0
   -0.3501    1.3995   -2.2609 C   0  0
    1.2938    0.2623    0.5524 C   0  0
   -1.0307   -0.6252    0.4622 C   0  0
   -0.4399    1.1341    2.1373 C   0  0
  -13.4320    2.3939    0.3711 P   0  0
  -14.4237    3.5337    0.7341 O   0  0
  -13.6831    1.9614   -0.9160 O   0  0
  -13.5562    1.1800    1.3594 O   0  0
  -14.3373    4.5813   -0.2337 C   0  0
  -15.3244    5.6964    0.1398 C   0  0
  -14.7645    0.3904    1.1821 C   0  0
  -16.0549    1.1839    1.4821 C   0  0
   -9.5324    3.6882    0.5439 H   0  0
  -11.9874    0.3704   -0.4819 H   0  0
  -10.0750   -0.9044   -1.0979 H   0  0
   -7.7893    0.0645   -0.9210 H   0  0
   -5.9518    0.9227    0.2113 H   0  0
   -6.0833    1.5394   -1.4719 H   0  0
   -4.7080    2.9720    0.8634 H   0  0
   -3.5650    0.9202    0.0792 H   0  0
   -3.6204    1.4987   -1.6143 H   0  0
  -11.8162    3.8697    0.8110 H   0  0
   -1.7486    5.6450   -2.2445 H   0  0
   -3.0845    5.0029   -3.2580 H   0  0
   -2.0697    3.8838   -2.2972 H   0  0
    1.5052    3.2047   -0.3166 H   0  0
    0.2811    3.8511    0.8268 H   0  0
    0.2003    4.2833   -0.9137 H   0  0
    0.7040    1.1125   -2.3818 H   0  0
   -0.5958    2.2044   -2.9685 H   0  0
   -0.9928    0.5293   -2.4567 H   0  0
    1.5474   -0.5265    1.2739 H   0  0
    1.9182    1.1450    0.7422 H   0  0
    1.4743   -0.1031   -0.4674 H   0  0
   -0.7457   -1.3991    1.1881 H   0  0
   -0.8494   -0.9943   -0.5562 H   0  0
   -2.0910   -0.3884    0.5829 H   0  0
   -0.1748    0.3424    2.8515 H   0  0
   -1.5034    1.3907    2.2491 H   0  0
    0.1751    2.0227    2.3312 H   0  0
  -14.5901    4.1846   -1.2269 H   0  0
  -13.3148    4.9843   -0.2486 H   0  0
  -15.2619    6.5051   -0.6026 H   0  0
  -15.0714    6.0906    1.1346 H   0  0
  -16.3461    5.2898    0.1552 H   0  0
  -14.7226   -0.4666    1.8691 H   0  0
  -14.7993    0.0183    0.1481 H   0  0
  -16.9255    0.5270    1.3445 H   0  0
  -16.1353    2.0370    0.7977 H   0  0
  -16.0291    1.5457    2.5198 H   0  0
  1  2  2  0
  2  3  1  0
  3  4  2  0
  4  5  1  0
  5  6  2  0
  1  6  1  0
  7  8  1  0
  8  9  1  0
  9 10  1  0
 10 11  1  0
  6  7  1  0
  2 12  1  0
  9 13  1  0
 13 14  1  0
 14 15  2  0
 14 16  2  0
 14 17  1  0
 11 18  1  0
 18 19  1  0
 18 20  1  0
 18 21  1  0
 19 22  1  0
 19 23  1  0
 19 24  1  0
 12 25  1  0
 25 26  1  0
 25 27  2  0
 25 28  1  0
 29 30  1  0
 26 29  1  0
 31 32  1  0
 28 31  1  0
  1 33  1  0
  3 34  1  0
  4 35  1  0
  5 36  1  0
  8 37  1  0
  8 38  1  0
  9 39  1  0
 10 40  1  0
 10 41  1  0
 12 42  1  0
 17 43  1  0
 17 44  1  0
 17 45  1  0
 20 46  1  0
 20 47  1  0
 20 48  1  0
 21 49  1  0
 21 50  1  0
 21 51  1  0
 22 52  1  0
 22 53  1  0
 22 54  1  0
 23 55  1  0
 23 56  1  0
 23 57  1  0
 24 58  1  0
 24 59  1  0
 24 60  1  0
 29 61  1  0
 29 62  1  0
 30 63  1  0
 30 64  1  0
 30 65  1  0
 31 66  1  0
 31 67  1  0
 32 68  1  0
 32 69  1  0
 32 70  1  0
M  END
> <Name>
DFD2009_44S

> <Clean Energy>
-4.35363

$$$$
DFD2009_44R
  SciTegic12132405553D

 70 70  0  0  0  0            999 V2000
   -9.6770    2.6732    0.2477 C   0  0
  -10.8964    2.1588    0.1180 C   0  0
  -11.0557    0.7806   -0.3491 C   0  0
   -9.9845    0.0504   -0.6413 C   0  0
   -8.6408    0.6135   -0.4998 C   0  0
   -8.4855    1.8805   -0.0711 C   0  0
   -7.2147    2.5315    0.1055 O   0  0
   -6.0484    1.7597   -0.2015 C   0  0
   -4.7621    2.5943   -0.0001 C   0  0  2  0  0  0
   -3.5851    1.7069   -0.4020 C   0  0
   -2.3719    2.4478   -0.2692 O   0  0
  -12.0077    2.9599    0.4383 N   0  0
   -4.5231    3.0255    1.3786 O   0  0
   -5.6923    4.0824    2.0606 S   0  0
   -6.3947    4.8536    0.9589 O   0  0
   -4.9744    5.0630    2.9679 O   0  0
   -6.8920    3.1726    3.0850 C   0  0
   -0.6843    2.0194   -0.5677 Si  0  0
   -0.0946    0.6724    0.6218 C   0  0
    0.3571    3.5511   -0.3269 C   0  0
   -0.5041    1.4306   -2.3291 C   0  0
    1.3852    0.3605    0.3554 C   0  0
   -0.9035   -0.6188    0.4321 C   0  0
   -0.2621    1.1632    2.0640 C   0  0
  -13.4710    2.4166    0.3085 P   0  0
  -14.4611    3.5742    0.6147 O   0  0
  -13.6839    1.9604   -0.9773 O   0  0
  -13.6421    1.2246    1.3163 O   0  0
  -14.3303    4.6007   -0.3705 C   0  0
  -15.3165    5.7339   -0.0532 C   0  0
  -14.8529    0.4448    1.1145 C   0  0
  -16.1433    1.2582    1.3551 C   0  0
   -9.5644    3.6715    0.5877 H   0  0
  -12.0219    0.3603   -0.4552 H   0  0
  -10.1041   -0.9476   -0.9789 H   0  0
   -7.8144    0.0007   -0.7415 H   0  0
   -6.0075    0.8669    0.4390 H   0  0
   -6.1012    1.4525   -1.2559 H   0  0
   -4.7949    3.4761   -0.6551 H   0  0
   -3.5548    0.8279    0.2535 H   0  0
   -3.7074    1.3836   -1.4451 H   0  0
  -11.8540    3.8834    0.7729 H   0  0
   -7.6081    3.8812    3.5250 H   0  0
   -6.3586    2.6443    3.8880 H   0  0
   -7.4318    2.4454    2.4690 H   0  0
    1.4117    3.3118   -0.5243 H   0  0
    0.2493    3.9086    0.7072 H   0  0
    0.0220    4.3334   -1.0226 H   0  0
    0.5494    1.1872   -2.5279 H   0  0
   -0.8336    2.2239   -3.0147 H   0  0
   -1.1230    0.5342   -2.4799 H   0  0
    1.7219   -0.4171    1.0549 H   0  0
    1.9859    1.2676    0.5013 H   0  0
    1.5056    0.0019   -0.6756 H   0  0
   -0.5366   -1.3806    1.1337 H   0  0
   -0.7823   -0.9810   -0.5976 H   0  0
   -1.9610   -0.4231    0.6300 H   0  0
    0.0854    0.3831    2.7553 H   0  0
   -1.3241    1.3773    2.2533 H   0  0
    0.3296    2.0757    2.2146 H   0  0
  -14.5542    4.1864   -1.3635 H   0  0
  -13.3033    4.9922   -0.3591 H   0  0
  -15.2198    6.5264   -0.8093 H   0  0
  -15.0924    6.1457    0.9414 H   0  0
  -16.3427    5.3388   -0.0641 H   0  0
  -14.8438   -0.3984    1.8198 H   0  0
  -14.8575    0.0519    0.0878 H   0  0
  -17.0164    0.6081    1.2016 H   0  0
  -16.1911    2.0978    0.6512 H   0  0
  -16.1480    1.6410    2.3855 H   0  0
  1  2  2  0
  2  3  1  0
  3  4  2  0
  4  5  1  0
  5  6  2  0
  1  6  1  0
  7  8  1  0
  8  9  1  0
  9 10  1  0
 10 11  1  0
  6  7  1  0
  2 12  1  0
  9 13  1  0
 13 14  1  0
 14 15  2  0
 14 16  2  0
 14 17  1  0
 11 18  1  0
 18 19  1  0
 18 20  1  0
 18 21  1  0
 19 22  1  0
 19 23  1  0
 19 24  1  0
 12 25  1  0
 25 26  1  0
 25 27  2  0
 25 28  1  0
 29 30  1  0
 26 29  1  0
 31 32  1  0
 28 31  1  0
  1 33  1  0
  3 34  1  0
  4 35  1  0
  5 36  1  0
  8 37  1  0
  8 38  1  0
  9 39  1  0
 10 40  1  0
 10 41  1  0
 12 42  1  0
 17 43  1  0
 17 44  1  0
 17 45  1  0
 20 46  1  0
 20 47  1  0
 20 48  1  0
 21 49  1  0
 21 50  1  0
 21 51  1  0
 22 52  1  0
 22 53  1  0
 22 54  1  0
 23 55  1  0
 23 56  1  0
 23 57  1  0
 24 58  1  0
 24 59  1  0
 24 60  1  0
 29 61  1  0
 29 62  1  0
 30 63  1  0
 30 64  1  0
 30 65  1  0
 31 66  1  0
 31 67  1  0
 32 68  1  0
 32 69  1  0
 32 70  1  0
M  END
> <Name>
DFD2009_44R

> <Clean Energy>
-3.96885

$$$$
DFD2009_45S
  SciTegic12132405553D

 65 65  0  0  0  0            999 V2000
   -9.1605    2.6375   -0.1156 C   0  0
  -10.4352    2.2979   -0.2883 C   0  0
  -10.7689    1.1199   -1.0914 C   0  0
   -9.8008    0.4003   -1.6494 C   0  0
   -8.3970    0.7780   -1.4721 C   0  0
   -8.0798    1.8571   -0.7312 C   0  0
   -6.7379    2.3227   -0.5045 O   0  0
   -5.6814    1.5944   -1.1555 C   0  0
   -4.3415    2.2591   -0.8297 C   0  0  1  0  0  0
   -3.2102    1.5106   -1.5570 C   0  0
   -1.9191    2.1100   -1.2989 O   0  0
  -11.4363    3.0935    0.3048 N   0  0
   -4.3766    3.6240   -1.2776 N   0  0
   -0.8530    2.2843    0.1210 Si  0  0
   -0.1569    0.6038    0.6168 C   0  0
    0.5518    3.4188   -0.3549 C   0  0
   -1.7588    3.0421    1.5728 C   0  0
    0.5953   -0.0020   -0.5738 C   0  0
   -1.2881   -0.3444    1.0335 C   0  0
    0.8093    0.7676    1.7992 C   0  0
  -12.9537    2.8087    0.0753 P   0  0
  -13.7268    4.0385    0.7017 O   0  0
  -13.1972    2.7504   -1.2825 O   0  0
  -13.2584    1.4076    0.7497 O   0  0
  -15.0564    4.2351    0.1819 C   0  0
  -15.6751    5.4795    0.8367 C   0  0
  -14.5070    0.8112    0.3650 C   0  0
  -14.6476   -0.5508    1.0586 C   0  0
   -3.4381    4.3255   -1.1563 N   0  3
   -2.4995    5.0273   -1.0352 N   0  5
   -8.9223    3.4921    0.4648 H   0  0
  -11.7799    0.8366   -1.2302 H   0  0
  -10.0471   -0.4520   -2.2302 H   0  0
   -7.6575    0.1847   -1.9388 H   0  0
   -5.6702    0.5499   -0.8112 H   0  0
   -5.8383    1.6230   -2.2434 H   0  0
   -4.1630    2.2307    0.2509 H   0  0
   -3.1919    0.4603   -1.2382 H   0  0
   -3.4118    1.5584   -2.6357 H   0  0
  -11.1688    3.8771    0.8543 H   0  0
    1.2311    3.5395    0.5008 H   0  0
    0.1460    4.3994   -0.6427 H   0  0
    1.1020    2.9860   -1.2023 H   0  0
   -1.0662    3.1540    2.4188 H   0  0
   -2.5926    2.3873    1.8649 H   0  0
   -2.1502    4.0276    1.2848 H   0  0
   -0.0993   -0.1257   -1.4171 H   0  0
    1.0031   -0.9807   -0.2860 H   0  0
    1.4171    0.6640   -0.8691 H   0  0
   -0.8592   -1.3161    1.3153 H   0  0
   -1.9796   -0.4807    0.1953 H   0  0
   -1.8275    0.0803    1.8904 H   0  0
    1.2136   -0.2164    2.0741 H   0  0
    0.2732    1.1950    2.6567 H   0  0
    1.6337    1.4338    1.5123 H   0  0
  -15.6802    3.3680    0.4026 H   0  0
  -15.0054    4.3837   -0.9060 H   0  0
  -16.6896    5.6349    0.4417 H   0  0
  -15.0543    6.3586    0.6102 H   0  0
  -15.7230    5.3347    1.9255 H   0  0
  -14.5242    0.6704   -0.7252 H   0  0
  -15.3378    1.4526    0.6656 H   0  0
  -15.6013   -1.0139    0.7664 H   0  0
  -14.6268   -0.4096    2.1489 H   0  0
  -13.8149   -1.2024    0.7567 H   0  0
  1  2  2  0
  2  3  1  0
  3  4  2  0
  4  5  1  0
  5  6  2  0
  1  6  1  0
  7  8  1  0
  8  9  1  0
  9 10  1  0
 10 11  1  0
  6  7  1  0
  2 12  1  0
  9 13  1  0
 11 14  1  0
 14 15  1  0
 14 16  1  0
 14 17  1  0
 15 18  1  0
 15 19  1  0
 15 20  1  0
 12 21  1  0
 21 22  1  0
 21 23  2  0
 21 24  1  0
 25 26  1  0
 22 25  1  0
 27 28  1  0
 24 27  1  0
 13 29  2  0
 29 30  2  0
  1 31  1  0
  3 32  1  0
  4 33  1  0
  5 34  1  0
  8 35  1  0
  8 36  1  0
  9 37  1  0
 10 38  1  0
 10 39  1  0
 12 40  1  0
 16 41  1  0
 16 42  1  0
 16 43  1  0
 17 44  1  0
 17 45  1  0
 17 46  1  0
 18 47  1  0
 18 48  1  0
 18 49  1  0
 19 50  1  0
 19 51  1  0
 19 52  1  0
 20 53  1  0
 20 54  1  0
 20 55  1  0
 25 56  1  0
 25 57  1  0
 26 58  1  0
 26 59  1  0
 26 60  1  0
 27 61  1  0
 27 62  1  0
 28 63  1  0
 28 64  1  0
 28 65  1  0
M  CHG  2  29   1  30  -1
M  END
> <Name>
DFD2009_45S

> <Clean Energy>
-0.0136296274140477

$$$$
DFD2009_45R
  SciTegic12132405553D

 65 65  0  0  0  0            999 V2000
   -9.1670    2.6127   -0.1367 C   0  0
  -10.4419    2.2883   -0.3325 C   0  0
  -10.7769    1.1634   -1.2087 C   0  0
   -9.8089    0.4789   -1.8101 C   0  0
   -8.4040    0.8415   -1.6054 C   0  0
   -8.0879    1.8699   -0.7961 C   0  0
   -6.7499    2.3135   -0.5307 O   0  0
   -5.6852    1.6314   -1.2169 C   0  0
   -4.3511    2.2601   -0.8020 C   0  0  2  0  0  0
   -3.2052    1.5724   -1.5658 C   0  0
   -1.9013    2.1498   -1.2714 O   0  0
  -11.4404    3.0482    0.3093 N   0  0
   -4.2000    2.0987    0.6034 N   0  0
   -0.7830    2.3110    0.1150 Si  0  0
   -0.2344    0.6066    0.7000 C   0  0
    0.7050    3.2751   -0.4708 C   0  0
   -1.5481    3.2570    1.5371 C   0  0
    0.4190   -0.1420   -0.4677 C   0  0
   -1.4391   -0.1976    1.2050 C   0  0
    0.7799    0.7481    1.8444 C   0  0
  -12.9582    2.7657    0.0861 P   0  0
  -13.7310    3.9631    0.7701 O   0  0
  -13.2219    2.7586   -1.2691 O   0  0
  -13.2428    1.3391    0.7132 O   0  0
  -15.0521    4.1946    0.2403 C   0  0
  -15.6780    5.4017    0.9553 C   0  0
  -14.5123    0.7681    0.3692 C   0  0
  -14.6286   -0.6198    1.0147 C   0  0
   -4.8943    2.6980    1.3419 N   0  3
   -5.5888    3.2975    2.0806 N   0  5
   -8.9277    3.4282    0.4973 H   0  0
  -11.7885    0.8914   -1.3664 H   0  0
  -10.0556   -0.3346   -2.4441 H   0  0
   -7.6632    0.2769   -2.1048 H   0  0
   -5.6854    0.5632   -0.9560 H   0  0
   -5.8182    1.7473   -2.3021 H   0  0
   -4.3770    3.3292   -1.0538 H   0  0
   -3.1938    0.4996   -1.3277 H   0  0
   -3.3948    1.7014   -2.6403 H   0  0
  -11.1702    3.7990    0.9016 H   0  0
    1.4196    3.3841    0.3576 H   0  0
    0.3838    4.2699   -0.8111 H   0  0
    1.1853    2.7400   -1.3019 H   0  0
   -0.8113    3.3565    2.3466 H   0  0
   -2.4250    2.7156    1.9106 H   0  0
   -1.8514    4.2549    1.1919 H   0  0
   -0.3100   -0.2491   -1.2837 H   0  0
    0.7402   -1.1360   -0.1277 H   0  0
    1.2911    0.4216   -0.8255 H   0  0
   -1.0985   -1.1877    1.5382 H   0  0
   -2.1668   -0.3159    0.3942 H   0  0
   -1.9081    0.3310    2.0455 H   0  0
    1.0967   -0.2517    2.1718 H   0  0
    0.3144    1.2778    2.6858 H   0  0
    1.6548    1.3118    1.4942 H   0  0
  -15.6823    3.3183    0.3995 H   0  0
  -14.9825    4.4056   -0.8363 H   0  0
  -16.6853    5.5835    0.5533 H   0  0
  -15.0510    6.2900    0.7898 H   0  0
  -15.7444    5.1949    2.0330 H   0  0
  -14.5868    0.6723   -0.7234 H   0  0
  -15.3209    1.4037    0.7389 H   0  0
  -15.5998   -1.0648    0.7542 H   0  0
  -14.5507   -0.5221    2.1073 H   0  0
  -13.8179   -1.2640    0.6450 H   0  0
  1  2  2  0
  2  3  1  0
  3  4  2  0
  4  5  1  0
  5  6  2  0
  1  6  1  0
  7  8  1  0
  8  9  1  0
  9 10  1  0
 10 11  1  0
  6  7  1  0
  2 12  1  0
  9 13  1  0
 11 14  1  0
 14 15  1  0
 14 16  1  0
 14 17  1  0
 15 18  1  0
 15 19  1  0
 15 20  1  0
 12 21  1  0
 21 22  1  0
 21 23  2  0
 21 24  1  0
 25 26  1  0
 22 25  1  0
 27 28  1  0
 24 27  1  0
 13 29  2  0
 29 30  2  0
  1 31  1  0
  3 32  1  0
  4 33  1  0
  5 34  1  0
  8 35  1  0
  8 36  1  0
  9 37  1  0
 10 38  1  0
 10 39  1  0
 12 40  1  0
 16 41  1  0
 16 42  1  0
 16 43  1  0
 17 44  1  0
 17 45  1  0
 17 46  1  0
 18 47  1  0
 18 48  1  0
 18 49  1  0
 19 50  1  0
 19 51  1  0
 19 52  1  0
 20 53  1  0
 20 54  1  0
 20 55  1  0
 25 56  1  0
 25 57  1  0
 26 58  1  0
 26 59  1  0
 26 60  1  0
 27 61  1  0
 27 62  1  0
 28 63  1  0
 28 64  1  0
 28 65  1  0
M  CHG  2  29   1  30  -1
M  END
> <Name>
DFD2009_45R

> <Clean Energy>
0.890554249286652

$$$$
DFD2009_46S
  SciTegic12132405553D

 68 68  0  0  0  0            999 V2000
   -9.7675    2.9083    0.9566 C   0  0
  -11.0700    2.6413    1.0151 C   0  0
  -11.5947    1.4295    0.4030 C   0  0
  -10.7719    0.5882   -0.2155 C   0  0
   -9.3361    0.8719   -0.2861 C   0  0
   -8.8441    1.9917    0.2787 C   0  0
   -7.4587    2.3658    0.2683 O   0  0
   -6.5511    1.4718   -0.3972 C   0  0
   -5.1436    2.0491   -0.3009 C   0  0  1  0  0  0
   -4.2095    1.0347   -1.0370 C   0  0
   -2.7857    1.2924   -1.0179 O   0  0
  -11.9349    3.5236    1.6637 N   0  3
  -11.5142    4.5031    2.1589 O   0  0
  -13.2307    3.2572    1.7214 O   0  5
   -5.2320    3.3480   -0.9473 O   0  0
   -1.6455    1.0939    0.3393 Si  0  0
    0.1260    1.1767   -0.2976 C   0  0
   -1.9081    2.3712    1.6601 C   0  0
   -1.9411   -0.5884    1.0956 C   0  0
    1.1094    0.9537    0.8606 C   0  0
    0.3336    0.0906   -1.3585 C   0  0
    0.4017    2.5382   -0.9254 C   0  0
   -4.3553    4.8555   -1.2240 Si  0  0
   -4.5465    5.9754    0.2781 C   0  0
   -2.5709    4.5420   -1.6009 C   0  0
   -5.1225    5.7010   -2.7021 C   0  0
   -3.8394    7.3147    0.0272 C   0  0
   -3.9421    5.3242    1.5094 C   0  0
   -6.0390    6.2208    0.5335 C   0  0
   -9.3911    3.7929    1.4044 H   0  0
  -12.6326    1.2172    0.4498 H   0  0
  -11.1572   -0.2939   -0.6605 H   0  0
   -8.7142    0.1792   -0.7863 H   0  0
   -6.5757    0.4838    0.0848 H   0  0
   -6.8328    1.3749   -1.4556 H   0  0
   -4.8690    2.1503    0.7587 H   0  0
   -4.3412    0.0471   -0.5750 H   0  0
   -4.5513    0.9851   -2.0801 H   0  0
   -1.2044    2.1954    2.4852 H   0  0
   -2.9396    2.3035    2.0351 H   0  0
   -1.7348    3.3687    1.2386 H   0  0
   -1.2419   -0.7432    1.9295 H   0  0
   -1.7828   -1.3655    0.3346 H   0  0
   -2.9744   -0.6441    1.4674 H   0  0
    2.1373    0.9982    0.4751 H   0  0
    0.9310   -0.0312    1.3118 H   0  0
    0.9693    1.7358    1.6185 H   0  0
    1.3662    0.1402   -1.7306 H   0  0
   -0.3661    0.2568   -2.1899 H   0  0
    0.1514   -0.8977   -0.9167 H   0  0
    1.4362    2.5651   -1.2945 H   0  0
    0.2593    3.3269   -0.1737 H   0  0
   -0.2906    2.6972   -1.7620 H   0  0
   -2.0626    5.4972   -1.7917 H   0  0
   -2.4908    3.8982   -2.4881 H   0  0
   -2.1040    4.0449   -0.7464 H   0  0
   -4.6033    6.6514   -2.8906 H   0  0
   -6.1855    5.8969   -2.5022 H   0  0
   -5.0287    5.0507   -3.5833 H   0  0
   -3.9652    7.9601    0.9074 H   0  0
   -4.2787    7.8054   -0.8512 H   0  0
   -2.7695    7.1380   -0.1472 H   0  0
   -4.0733    5.9892    2.3737 H   0  0
   -2.8726    5.1508    1.3405 H   0  0
   -4.4465    4.3661    1.7012 H   0  0
   -6.1542    6.8722    1.4108 H   0  0
   -6.5387    5.2580    0.7206 H   0  0
   -6.4900    6.7047   -0.3422 H   0  0
  1  2  2  0
  2  3  1  0
  3  4  2  0
  4  5  1  0
  5  6  2  0
  1  6  1  0
  7  8  1  0
  8  9  1  0
  9 10  1  0
 10 11  1  0
  6  7  1  0
  2 12  1  0
 12 13  2  0
 12 14  1  0
  9 15  1  0
 11 16  1  0
 16 17  1  0
 16 18  1  0
 16 19  1  0
 17 20  1  0
 17 21  1  0
 17 22  1  0
 15 23  1  0
 23 24  1  0
 23 25  1  0
 23 26  1  0
 24 27  1  0
 24 28  1  0
 24 29  1  0
  1 30  1  0
  3 31  1  0
  4 32  1  0
  5 33  1  0
  8 34  1  0
  8 35  1  0
  9 36  1  0
 10 37  1  0
 10 38  1  0
 18 39  1  0
 18 40  1  0
 18 41  1  0
 19 42  1  0
 19 43  1  0
 19 44  1  0
 20 45  1  0
 20 46  1  0
 20 47  1  0
 21 48  1  0
 21 49  1  0
 21 50  1  0
 22 51  1  0
 22 52  1  0
 22 53  1  0
 25 54  1  0
 25 55  1  0
 25 56  1  0
 26 57  1  0
 26 58  1  0
 26 59  1  0
 27 60  1  0
 27 61  1  0
 27 62  1  0
 28 63  1  0
 28 64  1  0
 28 65  1  0
 29 66  1  0
 29 67  1  0
 29 68  1  0
M  CHG  2  12   1  14  -1
M  END
> <Name>
DFD2009_46S

> <Clean Energy>
-7.841

$$$$
DFD2009_46R
  SciTegic12132405553D

 68 68  0  0  0  0            999 V2000
   -9.3243    3.4326    0.9269 C   0  0
  -10.6493    3.3452    0.8475 C   0  0
  -11.2649    2.2731    0.0803 C   0  0
  -10.5021    1.3795   -0.5416 C   0  0
   -9.0416    1.4658   -0.4605 C   0  0
   -8.4655    2.4565    0.2476 C   0  0
   -7.0428    2.6355    0.3952 O   0  0
   -6.2097    1.6847   -0.2665 C   0  0
   -4.7129    2.0083   -0.0645 C   0  0  2  0  0  0
   -3.9709    0.9216   -0.8868 C   0  0
   -2.5305    1.0173   -0.9176 O   0  0
  -11.4502    4.2823    1.5009 N   0  3
  -10.9549    5.1491    2.1216 O   0  0
  -12.7691    4.1954    1.4219 O   0  5
   -4.3180    1.9506    1.3405 O   0  0
   -1.2390    0.9508    0.2800 Si  0  0
    0.3716    0.6169   -0.6166 C   0  0
   -1.0986    2.5567    1.1977 C   0  0
   -1.5985   -0.4221    1.4920 C   0  0
    1.5311    0.5340    0.3870 C   0  0
    0.2638   -0.7092   -1.3765 C   0  0
    0.6443    1.7466   -1.6159 C   0  0
   -4.7879    2.7366    2.8950 Si  0  0
   -4.8019    4.6378    2.7764 C   0  0
   -6.4687    2.1352    3.4532 C   0  0
   -3.5519    2.2083    4.1929 C   0  0
   -5.1659    5.2306    4.1449 C   0  0
   -5.8316    5.1112    1.7509 C   0  0
   -3.4272    5.1507    2.3605 C   0  0
   -8.8817    4.2157    1.4883 H   0  0
  -12.3211    2.2038    0.0170 H   0  0
  -10.9534    0.5991   -1.0999 H   0  0
   -8.4693    0.7364   -0.9680 H   0  0
   -6.4170    0.6763    0.1194 H   0  0
   -6.4284    1.7171   -1.3434 H   0  0
   -4.4943    3.0079   -0.4665 H   0  0
   -4.2423   -0.0632   -0.4812 H   0  0
   -4.3258    0.9903   -1.9246 H   0  0
   -0.2834    2.4909    1.9313 H   0  0
   -2.0373    2.7550    1.7144 H   0  0
   -0.8911    3.3700    0.4887 H   0  0
   -0.7872   -0.4794    2.2313 H   0  0
   -1.6729   -1.3771    0.9529 H   0  0
   -2.5498   -0.2139    2.0051 H   0  0
    2.4655    0.3362   -0.1561 H   0  0
    1.3430   -0.2800    1.0999 H   0  0
    1.6182    1.4845    0.9295 H   0  0
    1.2059   -0.8998   -1.9090 H   0  0
   -0.5621   -0.6476   -2.0993 H   0  0
    0.0722   -1.5260   -0.6680 H   0  0
    1.5843    1.5418   -2.1468 H   0  0
    0.7275    2.7016   -1.0806 H   0  0
   -0.1826    1.8002   -2.3381 H   0  0
   -6.7137    2.5871    4.4245 H   0  0
   -6.4505    1.0411    3.5517 H   0  0
   -7.2247    2.4232    2.7204 H   0  0
   -3.8236    2.6532    5.1604 H   0  0
   -2.5481    2.5478    3.9022 H   0  0
   -3.5581    1.1123    4.2774 H   0  0
   -5.1706    6.3269    4.0735 H   0  0
   -4.4251    4.9165    4.8918 H   0  0
   -6.1621    4.8799    4.4452 H   0  0
   -5.8233    6.2087    1.7088 H   0  0
   -6.8309    4.7630    2.0457 H   0  0
   -5.5784    4.7055    0.7639 H   0  0
   -3.4504    6.2476    2.3050 H   0  0
   -3.1703    4.7377    1.3750 H   0  0
   -2.6771    4.8363    3.0986 H   0  0
  1  2  2  0
  2  3  1  0
  3  4  2  0
  4  5  1  0
  5  6  2  0
  1  6  1  0
  7  8  1  0
  8  9  1  0
  9 10  1  0
 10 11  1  0
  6  7  1  0
  2 12  1  0
 12 13  2  0
 12 14  1  0
  9 15  1  0
 11 16  1  0
 16 17  1  0
 16 18  1  0
 16 19  1  0
 17 20  1  0
 17 21  1  0
 17 22  1  0
 15 23  1  0
 23 24  1  0
 23 25  1  0
 23 26  1  0
 24 27  1  0
 24 28  1  0
 24 29  1  0
  1 30  1  0
  3 31  1  0
  4 32  1  0
  5 33  1  0
  8 34  1  0
  8 35  1  0
  9 36  1  0
 10 37  1  0
 10 38  1  0
 18 39  1  0
 18 40  1  0
 18 41  1  0
 19 42  1  0
 19 43  1  0
 19 44  1  0
 20 45  1  0
 20 46  1  0
 20 47  1  0
 21 48  1  0
 21 49  1  0
 21 50  1  0
 22 51  1  0
 22 52  1  0
 22 53  1  0
 25 54  1  0
 25 55  1  0
 25 56  1  0
 26 57  1  0
 26 58  1  0
 26 59  1  0
 27 60  1  0
 27 61  1  0
 27 62  1  0
 28 63  1  0
 28 64  1  0
 28 65  1  0
 29 66  1  0
 29 67  1  0
 29 68  1  0
M  CHG  2  12   1  14  -1
M  END
> <Name>
DFD2009_46R

> <Clean Energy>
-14.8013

$$$$
DFD2009_47R
  SciTegic12132405553D

 58 59  0  0  0  0            999 V2000
   -9.6242    3.1007   -0.1179 C   0  0
  -10.8461    2.6532    0.1585 C   0  0
  -11.0125    1.3356    0.7749 C   0  0
   -9.9466    0.5932    1.0545 C   0  0
   -8.6006    1.0820    0.7515 C   0  0
   -8.4370    2.2931    0.1850 C   0  0
   -7.1638    2.8675   -0.1532 O   0  0
   -6.0005    2.0767    0.1426 C   0  0
   -4.7484    2.8428   -0.2879 C   0  0  1  0  0  0
   -3.5125    1.9978    0.0239 C   0  0
   -2.3390    2.7127   -0.3832 O   0  0
   -1.1022    2.0377   -0.1538 C   0  0
   -0.9958    0.6849    0.4626 C   0  0
    0.2002    0.1297    0.6393 C   0  0
    1.4245    0.8257    0.2374 C   0  0
    1.3266    2.0476   -0.3193 C   0  0
    0.0129    2.6648   -0.5168 C   0  0
  -11.9535    3.4676   -0.1530 N   0  0
   -4.8084    3.1053   -1.7277 N   0  0
    2.6660    0.1354    0.4733 O   0  0
    3.8717    0.8174    0.0791 C   0  0
  -13.4175    3.0085    0.1320 P   0  0
  -13.5464    2.7357    1.4792 O   0  0
  -14.3363    4.2366   -0.2638 O   0  0
  -13.6518    1.6921   -0.7194 O   0  0
  -15.6850    4.1709    0.2270 C   0  0
  -16.4370    5.4415   -0.1973 C   0  0
  -14.7449    0.8681   -0.2714 C   0  0
  -14.8219   -0.3833   -1.1570 C   0  0
   -9.5066    4.0552   -0.5643 H   0  0
  -11.9795    0.9694    1.0001 H   0  0
  -10.0721   -0.3604    1.5009 H   0  0
   -7.7792    0.4612    0.9894 H   0  0
   -5.9515    1.8773    1.2228 H   0  0
   -6.0489    1.1256   -0.4071 H   0  0
   -4.6922    3.7949    0.2582 H   0  0
   -3.4712    1.7992    1.1045 H   0  0
   -3.5771    1.0472   -0.5249 H   0  0
   -1.8548    0.1469    0.7674 H   0  0
    0.2684   -0.8330    1.0784 H   0  0
    2.1803    2.5892   -0.6255 H   0  0
   -0.0504    3.6276   -0.9564 H   0  0
  -11.7976    4.3569   -0.5681 H   0  0
   -5.6427    3.6695   -1.9388 H   0  0
   -4.8613    2.2108   -2.2337 H   0  0
    4.7402    0.1852    0.3129 H   0  0
    3.9547    1.7678    0.6271 H   0  0
    3.8467    1.0166   -1.0027 H   0  0
  -15.6731    4.1017    1.3239 H   0  0
  -16.1938    3.3000   -0.1899 H   0  0
  -17.4702    5.3977    0.1765 H   0  0
  -16.4462    5.5118   -1.2946 H   0  0
  -15.9316    6.3232    0.2227 H   0  0
  -15.6855    1.4153   -0.3425 H   0  0
  -14.5711    0.5672    0.7715 H   0  0
  -15.6528   -1.0199   -0.8203 H   0  0
  -13.8774   -0.9418   -1.0826 H   0  0
  -14.9893   -0.0826   -2.2013 H   0  0
  1  2  2  0
  2  3  1  0
  3  4  2  0
  4  5  1  0
  5  6  2  0
  1  6  1  0
  7  8  1  0
  8  9  1  0
  9 10  1  0
 10 11  1  0
 11 12  1  0
  6  7  1  0
 13 14  2  0
 14 15  1  0
 15 16  2  0
 16 17  1  0
 12 13  1  0
 12 17  2  0
  2 18  1  0
  9 19  1  0
 15 20  1  0
 20 21  1  0
 18 22  1  0
 22 23  2  0
 22 24  1  0
 22 25  1  0
 26 27  1  0
 24 26  1  0
 28 29  1  0
 25 28  1  0
  1 30  1  0
  3 31  1  0
  4 32  1  0
  5 33  1  0
  8 34  1  0
  8 35  1  0
  9 36  1  0
 10 37  1  0
 10 38  1  0
 13 39  1  0
 14 40  1  0
 16 41  1  0
 17 42  1  0
 18 43  1  0
 19 44  1  0
 19 45  1  0
 21 46  1  0
 21 47  1  0
 21 48  1  0
 26 49  1  0
 26 50  1  0
 27 51  1  0
 27 52  1  0
 27 53  1  0
 28 54  1  0
 28 55  1  0
 29 56  1  0
 29 57  1  0
 29 58  1  0
M  END
> <Name>
DFD2009_47R

> <Clean Energy>
4.86976

$$$$
DFD2009_47S
  SciTegic12132405553D

 58 59  0  0  0  0            999 V2000
   -9.6243    3.1011   -0.1171 C   0  0
  -10.8460    2.6549    0.1622 C   0  0
  -11.0124    1.3371    0.7782 C   0  0
   -9.9467    0.5932    1.0544 C   0  0
   -8.6009    1.0803    0.7477 C   0  0
   -8.4372    2.2916    0.1815 C   0  0
   -7.1637    2.8641   -0.1608 O   0  0
   -6.0013    2.0702    0.1291 C   0  0
   -4.7495    2.8368   -0.3005 C   0  0  2  0  0  0
   -3.5132    1.9917    0.0109 C   0  0
   -2.3389    2.7093   -0.3890 O   0  0
   -1.1024    2.0363   -0.1557 C   0  0
   -0.9961    0.6825    0.4583 C   0  0
    0.2001    0.1289    0.6384 C   0  0
    1.4247    0.8277    0.2426 C   0  0
    1.3270    2.0507   -0.3117 C   0  0
    0.0131    2.6661   -0.5128 C   0  0
  -11.9532    3.4707   -0.1463 N   0  0
   -4.6751    4.1006    0.4363 N   0  0
    2.6665    0.1388    0.4813 O   0  0
    3.8725    0.8233    0.0925 C   0  0
  -13.4173    3.0113    0.1379 P   0  0
  -13.5469    2.7375    1.4848 O   0  0
  -14.3361    4.2394   -0.2580 O   0  0
  -13.6507    1.6953   -0.7146 O   0  0
  -15.6858    4.1721    0.2294 C   0  0
  -16.4376    5.4428   -0.1948 C   0  0
  -14.7431    0.8700   -0.2672 C   0  0
  -14.8191   -0.3806   -1.1540 C   0  0
   -9.5068    4.0557   -0.5632 H   0  0
  -11.9792    0.9721    1.0059 H   0  0
  -10.0722   -0.3605    1.5005 H   0  0
   -7.7797    0.4581    0.9826 H   0  0
   -5.9493    1.8679    1.2088 H   0  0
   -6.0529    1.1204   -0.4227 H   0  0
   -4.7943    3.0412   -1.3793 H   0  0
   -3.4757    1.7904    1.0912 H   0  0
   -3.5743    1.0424   -0.5405 H   0  0
   -1.8554    0.1425    0.7588 H   0  0
    0.2682   -0.8346    1.0758 H   0  0
    2.1810    2.5944   -0.6136 H   0  0
   -0.0503    3.6297   -0.9507 H   0  0
  -11.7973    4.3605   -0.5604 H   0  0
   -3.8303    4.6144    0.1511 H   0  0
   -4.6330    3.9031    1.4454 H   0  0
    4.7411    0.1919    0.3280 H   0  0
    3.9523    1.7727    0.6427 H   0  0
    3.8508    1.0246   -0.9890 H   0  0
  -15.6766    4.1011    1.3263 H   0  0
  -16.1931    3.3015   -0.1901 H   0  0
  -17.4717    5.3978    0.1764 H   0  0
  -16.4442    5.5148   -1.2920 H   0  0
  -15.9339    6.3242    0.2278 H   0  0
  -15.6842    1.4163   -0.3374 H   0  0
  -14.5688    0.5681    0.7754 H   0  0
  -15.6493   -1.0184   -0.8179 H   0  0
  -13.8741   -0.9384   -1.0804 H   0  0
  -14.9870   -0.0790   -2.1980 H   0  0
  1  2  2  0
  2  3  1  0
  3  4  2  0
  4  5  1  0
  5  6  2  0
  1  6  1  0
  7  8  1  0
  8  9  1  0
  9 10  1  0
 10 11  1  0
 11 12  1  0
  6  7  1  0
 13 14  2  0
 14 15  1  0
 15 16  2  0
 16 17  1  0
 12 13  1  0
 12 17  2  0
  2 18  1  0
  9 19  1  0
 15 20  1  0
 20 21  1  0
 18 22  1  0
 22 23  2  0
 22 24  1  0
 22 25  1  0
 26 27  1  0
 24 26  1  0
 28 29  1  0
 25 28  1  0
  1 30  1  0
  3 31  1  0
  4 32  1  0
  5 33  1  0
  8 34  1  0
  8 35  1  0
  9 36  1  0
 10 37  1  0
 10 38  1  0
 13 39  1  0
 14 40  1  0
 16 41  1  0
 17 42  1  0
 18 43  1  0
 19 44  1  0
 19 45  1  0
 21 46  1  0
 21 47  1  0
 21 48  1  0
 26 49  1  0
 26 50  1  0
 27 51  1  0
 27 52  1  0
 27 53  1  0
 28 54  1  0
 28 55  1  0
 29 56  1  0
 29 57  1  0
 29 58  1  0
M  END
> <Name>
DFD2009_47S

> <Clean Energy>
4.86687

$$$$
DFD2009_48S
  SciTegic12132405553D

 49 50  0  0  0  0            999 V2000
   -2.9667   -1.2250    0.5038 C   0  0  1  0  0  0
   -1.6913   -1.7929   -0.1219 C   0  0
   -0.7340   -0.8684    0.3980 O   0  0
   -1.3359    0.4192    0.0182 C   0  0
   -2.7756    0.1763    0.1558 N   0  0
   -0.8166    1.5425    0.9345 C   0  0
   -0.9899    0.8440   -1.4449 C   0  0
   -3.7739    1.1956   -0.0560 C   0  0
   -5.1699    0.9228    0.0801 O   0  0
   -6.1046    2.0492   -0.1689 C   0  0
   -7.5328    1.5501    0.0217 C   0  0
   -3.3852    2.3294   -0.3619 O   0  0
   -5.8693    3.2022    0.8378 C   0  0
   -5.9780    2.5663   -1.6231 C   0  0
   -4.2221   -1.9876    0.0269 C   0  0
   -5.4129   -1.4916    0.6421 O   0  0
   -6.6050   -2.2065    0.2876 C   0  0
   -7.7436   -1.8276    0.8638 C   0  0
   -8.9990   -2.5051    0.5561 C   0  0
   -9.0234   -3.5176   -0.3048 C   0  0
   -7.7919   -3.9597   -0.9493 C   0  0
   -6.6376   -3.3524   -0.6819 C   0  0
  -10.1767   -2.0874    1.1677 N   0  0
   -2.8840   -1.3145    1.5952 H   0  0
   -1.5100   -2.8380    0.1638 H   0  0
   -1.7477   -1.7090   -1.2121 H   0  0
   -1.3026    2.4907    0.6689 H   0  0
    0.2703    1.6414    0.8074 H   0  0
   -1.0438    1.2935    1.9805 H   0  0
   -1.4879    1.7951   -1.6760 H   0  0
   -1.3271    0.0786   -2.1564 H   0  0
    0.0975    0.9719   -1.5355 H   0  0
   -8.2345    2.3757   -0.1609 H   0  0
   -7.6565    1.1821    1.0501 H   0  0
   -7.7316    0.7339   -0.6877 H   0  0
   -6.5987    4.0014    0.6460 H   0  0
   -4.8557    3.6039    0.7246 H   0  0
   -6.0012    2.8231    1.8608 H   0  0
   -6.7061    3.3738   -1.7823 H   0  0
   -6.1857    1.7424   -2.3202 H   0  0
   -4.9675    2.9511   -1.8026 H   0  0
   -4.1063   -3.0405    0.3201 H   0  0
   -4.2988   -1.9182   -1.0676 H   0  0
   -7.7386   -1.0233    1.5539 H   0  0
   -9.9400   -4.0045   -0.5228 H   0  0
   -7.8160   -4.7685   -1.6346 H   0  0
   -5.7605   -3.6945   -1.1655 H   0  0
  -11.0338   -2.5466    0.9605 H   0  0
  -10.1600   -1.3293    1.8108 H   0  0
  1  2  1  0
  2  3  1  0
  3  4  1  0
  4  5  1  0
  1  5  1  0
  4  6  1  0
  4  7  1  0
  8  9  1  0
  9 10  1  0
 10 11  1  0
  5  8  1  0
  8 12  2  0
 10 13  1  0
 10 14  1  0
 15 16  1  0
 16 17  1  0
  1 15  1  0
 20 21  1  0
 21 22  2  0
 22 17  1  0
 18 17  2  0
 19 20  2  0
 18 19  1  0
 19 23  1  0
  1 24  1  0
  2 25  1  0
  2 26  1  0
  6 27  1  0
  6 28  1  0
  6 29  1  0
  7 30  1  0
  7 31  1  0
  7 32  1  0
 11 33  1  0
 11 34  1  0
 11 35  1  0
 13 36  1  0
 13 37  1  0
 13 38  1  0
 14 39  1  0
 14 40  1  0
 14 41  1  0
 15 42  1  0
 15 43  1  0
 18 44  1  0
 20 45  1  0
 21 46  1  0
 22 47  1  0
 23 48  1  0
 23 49  1  0
M  END
> <Name>
DFD2009_48S

> <Clean Energy>
30.7946

$$$$
DFD2009_48R
  SciTegic12132405553D

 49 50  0  0  0  0            999 V2000
   -3.2360   -1.0783    0.4657 C   0  0  2  0  0  0
   -1.9998   -1.8325   -0.0275 C   0  0
   -0.9812   -1.0281    0.5965 O   0  0
   -1.3986    0.3364    0.1537 C   0  0
   -2.8531    0.2415    0.1698 N   0  0
   -0.8413    1.4197    1.0970 C   0  0
   -0.8950    0.7099   -1.2740 C   0  0
   -3.7613    1.2783   -0.0768 C   0  0
   -5.1511    0.9735   -0.0116 O   0  0
   -6.1051    2.0566   -0.2633 C   0  0
   -7.5169    1.4799   -0.1352 C   0  0
   -3.3432    2.4136   -0.3378 O   0  0
   -5.9479    3.1885    0.7782 C   0  0
   -5.9406    2.6225   -1.6929 C   0  0
   -3.3981   -1.2248    1.9907 C   0  0
   -3.6662   -2.5966    2.3003 O   0  0
   -3.8416   -2.8834    3.6864 C   0  0
   -4.0933   -4.1471    4.0230 C   0  0
   -4.2850   -4.5208    5.4228 C   0  0
   -4.2102   -3.6015    6.3805 C   0  0
   -3.9353   -2.2091    6.0398 C   0  0
   -3.7580   -1.8503    4.7699 C   0  0
   -4.5474   -5.8466    5.7551 N   0  0
   -4.1671   -1.3993   -0.0210 H   0  0
   -2.0004   -2.8935    0.2577 H   0  0
   -1.9233   -1.7391   -1.1148 H   0  0
   -1.2048    2.4064    0.7786 H   0  0
    0.2566    1.4044    1.0601 H   0  0
   -1.1786    1.2168    2.1235 H   0  0
   -1.2737    1.7061   -1.5421 H   0  0
   -1.2515   -0.0213   -2.0111 H   0  0
    0.2035    0.7246   -1.2770 H   0  0
   -8.2527    2.2753   -0.3197 H   0  0
   -7.6558    1.0775    0.8781 H   0  0
   -7.6509    0.6761   -0.8727 H   0  0
   -6.7002    3.9652    0.5824 H   0  0
   -4.9460    3.6295    0.7083 H   0  0
   -6.0983    2.7777    1.7864 H   0  0
   -6.6930    3.4060   -1.8588 H   0  0
   -6.0858    1.8139   -2.4227 H   0  0
   -4.9386    3.0515   -1.8162 H   0  0
   -4.2362   -0.5972    2.3270 H   0  0
   -2.4759   -0.9084    2.4971 H   0  0
   -4.1553   -4.8892    3.2682 H   0  0
   -4.3506   -3.8811    7.3938 H   0  0
   -3.8765   -1.4797    6.8072 H   0  0
   -3.5599   -0.8335    4.5514 H   0  0
   -4.6782   -6.1033    6.7067 H   0  0
   -4.6038   -6.5356    5.0406 H   0  0
  1  2  1  0
  2  3  1  0
  3  4  1  0
  4  5  1  0
  1  5  1  0
  4  6  1  0
  4  7  1  0
  8  9  1  0
  9 10  1  0
 10 11  1  0
  5  8  1  0
  8 12  2  0
 10 13  1  0
 10 14  1  0
 15 16  1  0
 16 17  1  0
  1 15  1  0
 20 21  1  0
 21 22  2  0
 22 17  1  0
 18 17  2  0
 19 20  2  0
 18 19  1  0
 19 23  1  0
  1 24  1  0
  2 25  1  0
  2 26  1  0
  6 27  1  0
  6 28  1  0
  6 29  1  0
  7 30  1  0
  7 31  1  0
  7 32  1  0
 11 33  1  0
 11 34  1  0
 11 35  1  0
 13 36  1  0
 13 37  1  0
 13 38  1  0
 14 39  1  0
 14 40  1  0
 14 41  1  0
 15 42  1  0
 15 43  1  0
 18 44  1  0
 20 45  1  0
 21 46  1  0
 22 47  1  0
 23 48  1  0
 23 49  1  0
M  END
> <Name>
DFD2009_48R

> <Clean Energy>
28.9879

$$$$
DFD2009_58S
  SciTegic12132405553D

 94 97  0  0  0  0            999 V2000
   -1.4124    1.7061    1.2210 O   0  0
   -3.5304    0.4780   -1.0020 C   0  0
   -3.0937   -0.3937    0.2448 C   0  0  2  0  0  0
   -1.6546   -1.0272   -0.0517 C   0  0  2  0  0  0
   -0.4712   -0.0086   -0.3201 C   0  0  1  0  0  0
   -0.2015    0.9981    0.9656 C   0  0  1  0  0  0
   -1.6576   -1.8617   -1.2775 O   0  0
    0.5275   -1.0317   -0.6244 O   0  0
   -4.0215   -1.4853    0.5398 O   0  0
   -4.7874    1.1057   -0.8054 O   0  0
    1.7749   -0.7064   -1.0465 C   0  0
    2.4803   -1.9804   -1.3263 C   0  0
   -2.4006   -3.1107   -1.2523 C   0  0
   -1.7756   -4.0529   -0.2674 C   0  0
   -5.3196   -1.0833    1.0096 C   0  0
   -6.0892   -2.3132    1.3283 C   0  0
   -5.1293    1.8547   -1.9594 C   0  0
   -6.4852    2.4400   -1.7594 C   0  0
    0.8481    2.2583    0.9849 C   0  0
   -2.5911   -4.6535    0.7817 C   0  0
   -2.0378   -5.4860    1.6599 C   0  0
   -0.6087   -5.8001    1.5701 C   0  0
    0.1337   -5.2532    0.6090 C   0  0
   -0.4772   -4.3402   -0.3529 C   0  0
   -7.3300   -2.5974    0.6157 C   0  0
   -8.0185   -3.7018    0.8963 C   0  0
   -7.5285   -4.6291    1.9197 C   0  0
   -6.3956   -4.3660    2.5686 C   0  0
   -5.6428   -3.1522    2.2585 C   0  0
   -6.7367    3.8377   -2.0994 C   0  0
   -7.9490    4.3575   -1.9179 C   0  0
   -9.0282    3.5269   -1.3774 C   0  0
   -8.7960    2.2524   -1.0678 C   0  0
   -7.4641    1.6836   -1.2678 C   0  0
    2.6536   -2.4311   -2.7011 C   0  0
    3.2774   -3.5805   -2.9489 C   0  0
    3.7888   -4.3891   -1.8396 C   0  0
    3.6296   -3.9732   -0.5847 C   0  0
    2.9432   -2.7114   -0.3168 C   0  0
    0.4568    3.1680    0.0249 F   0  0
    2.5540    2.1221    0.8124 P   0  0
    0.6022    2.7839    2.2289 F   0  0
    3.0634    1.1966    1.7002 O   0  0
    3.2658    3.5070    1.0619 O   0  0
    2.9584    1.7786   -0.6337 O   0  0
    4.3950    1.7745   -0.7456 C   0  0
    4.7920    1.4144   -2.1863 C   0  0
    3.4166    3.8428    2.4556 C   0  0
    4.1477    5.1884    2.5676 C   0  0
   -1.6297    2.2925    0.4566 H   0  0
   -2.7866    1.2653   -1.1755 H   0  0
   -3.5850   -0.1697   -1.8875 H   0  0
   -3.0303    0.2351    1.1346 H   0  0
   -1.3540   -1.6333    0.8125 H   0  0
   -0.7088    0.5888   -1.2092 H   0  0
    0.0274    0.3471    1.8205 H   0  0
    2.2581   -0.2077   -0.2186 H   0  0
    1.7117   -0.0824   -1.9484 H   0  0
   -2.2825   -3.5456   -2.2534 H   0  0
   -3.4617   -2.9557   -1.0335 H   0  0
   -5.8560   -0.4897    0.2657 H   0  0
   -5.1533   -0.5124    1.9327 H   0  0
   -5.1766    1.1431   -2.7950 H   0  0
   -4.3892    2.6379   -2.1745 H   0  0
   -3.6223   -4.4251    0.8433 H   0  0
   -2.6307   -5.9219    2.4236 H   0  0
   -0.1662   -6.4629    2.2697 H   0  0
    1.1683   -5.4791    0.5425 H   0  0
    0.1137   -3.9006   -1.1176 H   0  0
   -7.6818   -1.9240   -0.1252 H   0  0
   -8.9206   -3.9103    0.3793 H   0  0
   -8.0756   -5.5096    2.1434 H   0  0
   -6.0395   -5.0365    3.3088 H   0  0
   -4.7383   -2.9416    2.7712 H   0  0
   -5.9543    4.4371   -2.4902 H   0  0
   -8.1333    5.3723   -2.1644 H   0  0
   -9.9940    3.9403   -1.2326 H   0  0
   -9.5765    1.6506   -0.6763 H   0  0
   -7.2770    0.6678   -1.0208 H   0  0
    2.2817   -1.8441   -3.5018 H   0  0
    3.4038   -3.9107   -3.9485 H   0  0
    4.2857   -5.3051   -2.0357 H   0  0
    3.9984   -4.5578    0.2193 H   0  0
    2.8101   -2.3793    0.6815 H   0  0
    4.8114    1.0285   -0.0542 H   0  0
    4.7907    2.7680   -0.4958 H   0  0
    5.8878    1.4093   -2.2742 H   0  0
    4.3710    2.1578   -2.8782 H   0  0
    4.3984    0.4169   -2.4351 H   0  0
    4.0073    3.0637    2.9574 H   0  0
    2.4396    3.9259    2.9355 H   0  0
    4.2698    5.4519    3.6281 H   0  0
    3.5596    5.9671    2.0608 H   0  0
    5.1363    5.1077    2.0928 H   0  0
  3  2  1  0
  4  3  1  0
  5  4  1  0
  5  6  1  0
  6  1  1  0
  4  7  1  0
  5  8  1  0
  3  9  1  0
  2 10  1  0
 11 12  1  0
  8 11  1  0
 13 14  1  0
  7 13  1  0
 15 16  1  0
  9 15  1  0
 17 18  1  0
 10 17  1  0
  6 19  1  0
 20 21  2  0
 21 22  1  0
 22 23  2  0
 23 24  1  0
 14 20  1  0
 14 24  2  0
 25 26  2  0
 26 27  1  0
 27 28  2  0
 28 29  1  0
 16 25  1  0
 16 29  2  0
 30 31  2  0
 31 32  1  0
 32 33  2  0
 33 34  1  0
 18 30  1  0
 18 34  2  0
 35 36  2  0
 36 37  1  0
 37 38  2  0
 38 39  1  0
 12 35  1  0
 12 39  2  0
 19 40  1  0
 19 41  1  0
 19 42  1  0
 41 43  2  0
 41 44  1  0
 41 45  1  0
 46 47  1  0
 45 46  1  0
 48 49  1  0
 44 48  1  0
  1 50  1  0
  2 51  1  0
  2 52  1  0
  3 53  1  0
  4 54  1  0
  5 55  1  0
  6 56  1  0
 11 57  1  0
 11 58  1  0
 13 59  1  0
 13 60  1  0
 15 61  1  0
 15 62  1  0
 17 63  1  0
 17 64  1  0
 20 65  1  0
 21 66  1  0
 22 67  1  0
 23 68  1  0
 24 69  1  0
 25 70  1  0
 26 71  1  0
 27 72  1  0
 28 73  1  0
 29 74  1  0
 30 75  1  0
 31 76  1  0
 32 77  1  0
 33 78  1  0
 34 79  1  0
 35 80  1  0
 36 81  1  0
 37 82  1  0
 38 83  1  0
 39 84  1  0
 46 85  1  0
 46 86  1  0
 47 87  1  0
 47 88  1  0
 47 89  1  0
 48 90  1  0
 48 91  1  0
 49 92  1  0
 49 93  1  0
 49 94  1  0
M  END
> <Name>
DFD2009_58S

> <Clean Energy>
62.5716

$$$$
DFD2009_58R
  SciTegic12132405553D

 94 97  0  0  0  0            999 V2000
   -0.9471    1.1055    1.4410 O   0  0
   -3.3590    0.2514   -0.7407 C   0  0
   -2.9341   -0.8232    0.3426 C   0  0  2  0  0  0
   -1.5891   -1.5487   -0.1305 C   0  0  2  0  0  0
   -0.3539   -0.5816   -0.3076 C   0  0  1  0  0  0
    0.0999    0.2361    1.0195 C   0  0  2  0  0  0
   -1.7240   -2.2056   -1.4515 O   0  0
    0.7081   -1.4483   -0.7851 O   0  0
   -3.9459   -1.8550    0.5586 O   0  0
   -4.5320    0.9572   -0.3674 O   0  0
    1.8719   -0.7539   -1.2736 C   0  0
    2.8174   -1.7983   -1.7480 C   0  0
   -2.6206   -3.3455   -1.5555 C   0  0
   -2.1301   -4.4749   -0.6979 C   0  0
   -5.1653   -1.4113    1.1739 C   0  0
   -6.0164   -2.6106    1.3793 C   0  0
   -4.8667    1.8865   -1.3850 C   0  0
   -6.1417    2.5633   -1.0137 C   0  0
    0.5154   -0.6819    2.2379 C   0  0
   -3.0411   -5.1101    0.2476 C   0  0
   -2.6140   -6.1082    1.0164 C   0  0
   -1.2280   -6.5710    0.9103 C   0  0
   -0.3974   -5.9928    0.0439 C   0  0
   -0.8695   -4.8960   -0.7989 C   0  0
   -7.2366   -2.7772    0.5988 C   0  0
   -7.9961   -3.8560    0.7768 C   0  0
   -7.6043   -4.8732    1.7561 C   0  0
   -6.4894   -4.7172    2.4676 C   0  0
   -5.6584   -3.5313    2.2700 C   0  0
   -6.2779    4.0081   -1.1773 C   0  0
   -7.4180    4.6098   -0.8440 C   0  0
   -8.5336    3.8218   -0.3138 C   0  0
   -8.4068    2.5043   -0.1653 C   0  0
   -7.1540    1.8455   -0.5320 C   0  0
    2.6255   -2.4125   -3.0578 C   0  0
    3.4677   -3.3527   -3.4805 C   0  0
    4.5854   -3.7696   -2.6301 C   0  0
    4.7574   -3.2082   -1.4345 C   0  0
    3.8299   -2.1758   -0.9725 C   0  0
   -0.5369   -1.4494    2.6865 F   0  0
    1.0016    0.3178    3.4981 P   0  0
    1.5452   -1.5054    1.8413 F   0  0
    2.0566    1.1043    3.0829 O   0  0
    1.4188   -0.4714    4.7920 O   0  0
   -0.1897    1.2266    3.8744 O   0  0
    0.2032    2.1144    4.9174 C   0  0
   -0.9825    3.0183    5.2848 C   0  0
    2.6766   -1.1528    4.6619 C   0  0
    3.0039   -1.8560    5.9872 C   0  0
   -1.1755    1.7243    0.7053 H   0  0
   -2.5541    0.9850   -0.8657 H   0  0
   -3.5347   -0.2590   -1.6973 H   0  0
   -2.7484   -0.3310    1.3035 H   0  0
   -1.3125   -2.2934    0.6213 H   0  0
   -0.5951    0.1431   -1.0943 H   0  0
    0.9688    0.8508    0.7563 H   0  0
    2.3307   -0.1684   -0.4684 H   0  0
    1.5483   -0.1252   -2.1141 H   0  0
   -2.5684   -3.6715   -2.6026 H   0  0
   -3.6527   -3.0812   -1.3003 H   0  0
   -5.6852   -0.6852    0.5442 H   0  0
   -4.8895   -0.9856    2.1479 H   0  0
   -5.0363    1.3049   -2.3015 H   0  0
   -4.0657    2.6201   -1.5517 H   0  0
   -4.0427   -4.7738    0.3216 H   0  0
   -3.2770   -6.5684    1.7047 H   0  0
   -0.8860   -7.3665    1.5225 H   0  0
    0.6060   -6.3271   -0.0336 H   0  0
   -0.2086   -4.4309   -1.4874 H   0  0
   -7.5172   -2.0391   -0.1099 H   0  0
   -8.8839   -3.9792    0.2100 H   0  0
   -8.2081   -5.7333    1.8980 H   0  0
   -6.2042   -5.4529    3.1760 H   0  0
   -4.7678   -3.4061    2.8319 H   0  0
   -5.4693    4.5765   -1.5611 H   0  0
   -7.5184    5.6588   -0.9624 H   0  0
   -9.4419    4.3004   -0.0481 H   0  0
   -9.2137    1.9333    0.2185 H   0  0
   -7.0511    0.7952   -0.4140 H   0  0
    1.8152   -2.1095   -3.6710 H   0  0
    3.3295   -3.7999   -4.4321 H   0  0
    5.2570   -4.5185   -2.9659 H   0  0
    5.5656   -3.5099   -0.8179 H   0  0
    3.9623   -1.7288   -0.0193 H   0  0
    1.0444    2.7330    4.5747 H   0  0
    0.5097    1.5338    5.7988 H   0  0
   -0.6839    3.7056    6.0894 H   0  0
   -1.8237    2.3974    5.6253 H   0  0
   -1.2880    3.5974    4.4013 H   0  0
    3.4656   -0.4237    4.4302 H   0  0
    2.6219   -1.8995    3.8644 H   0  0
    3.9669   -2.3790    5.8965 H   0  0
    2.2120   -2.5823    6.2209 H   0  0
    3.0658   -1.1091    6.7918 H   0  0
  3  2  1  0
  4  3  1  0
  5  4  1  0
  5  6  1  0
  6  1  1  0
  4  7  1  0
  5  8  1  0
  3  9  1  0
  2 10  1  0
 11 12  1  0
  8 11  1  0
 13 14  1  0
  7 13  1  0
 15 16  1  0
  9 15  1  0
 17 18  1  0
 10 17  1  0
  6 19  1  0
 20 21  2  0
 21 22  1  0
 22 23  2  0
 23 24  1  0
 14 20  1  0
 14 24  2  0
 25 26  2  0
 26 27  1  0
 27 28  2  0
 28 29  1  0
 16 25  1  0
 16 29  2  0
 30 31  2  0
 31 32  1  0
 32 33  2  0
 33 34  1  0
 18 30  1  0
 18 34  2  0
 35 36  2  0
 36 37  1  0
 37 38  2  0
 38 39  1  0
 12 35  1  0
 12 39  2  0
 19 40  1  0
 19 41  1  0
 19 42  1  0
 41 43  2  0
 41 44  1  0
 41 45  1  0
 46 47  1  0
 45 46  1  0
 48 49  1  0
 44 48  1  0
  1 50  1  0
  2 51  1  0
  2 52  1  0
  3 53  1  0
  4 54  1  0
  5 55  1  0
  6 56  1  0
 11 57  1  0
 11 58  1  0
 13 59  1  0
 13 60  1  0
 15 61  1  0
 15 62  1  0
 17 63  1  0
 17 64  1  0
 20 65  1  0
 21 66  1  0
 22 67  1  0
 23 68  1  0
 24 69  1  0
 25 70  1  0
 26 71  1  0
 27 72  1  0
 28 73  1  0
 29 74  1  0
 30 75  1  0
 31 76  1  0
 32 77  1  0
 33 78  1  0
 34 79  1  0
 35 80  1  0
 36 81  1  0
 37 82  1  0
 38 83  1  0
 39 84  1  0
 46 85  1  0
 46 86  1  0
 47 87  1  0
 47 88  1  0
 47 89  1  0
 48 90  1  0
 48 91  1  0
 49 92  1  0
 49 93  1  0
 49 94  1  0
M  END
> <Name>
DFD2009_58R

> <Clean Energy>
35.7054

$$$$
DFD2009_59
  SciTegic12132405553D

 22 21  0  0  0  0            999 V2000
   -0.6028   -0.1083   -0.1127 C   0  0
   -1.7159    0.6583    0.1599 F   0  0
    0.7609    0.8359    0.0286 P   0  0
   -0.6866   -0.5999   -1.3987 F   0  0
    0.8193    1.4225    1.6355 S   0  0
    0.6260    2.0008   -1.0172 O   0  0
    2.0538    0.0144   -0.2981 O   0  0
    1.8722    2.6962   -1.3158 C   0  0
    2.4782    3.4244   -0.0981 C   0  0
   -0.5551   -0.9455    0.5978 H   0  0
    2.3115   -1.0162    0.6720 C   0  0
    3.6033   -1.7503    0.2850 C   0  0
    1.6716    3.4444   -2.0958 H   0  0
    2.6023    1.9692   -1.6993 H   0  0
    3.4018    3.9361   -0.4038 H   0  0
    2.7125    2.6984    0.6895 H   0  0
    1.7586    4.1631    0.2828 H   0  0
    1.4832   -1.7350    0.6945 H   0  0
    2.4346   -0.5658    1.6660 H   0  0
    3.8108   -2.5399    1.0216 H   0  0
    4.4386   -1.0354    0.2674 H   0  0
    3.4837   -2.1997   -0.7114 H   0  0
  1  2  1  0
  1  3  1  0
  1  4  1  0
  3  5  2  0
  3  6  1  0
  3  7  1  0
  8  9  1  0
  6  8  1  0
  1 10  1  0
 11 12  1  0
  7 11  1  0
  8 13  1  0
  8 14  1  0
  9 15  1  0
  9 16  1  0
  9 17  1  0
 11 18  1  0
 11 19  1  0
 12 20  1  0
 12 21  1  0
 12 22  1  0
M  END
> <Name>
DFD2009_59

> <Clean Energy>
0.336535155773163

$$$$
DFD2009_62
  SciTegic12132405553D

 92 95  0  0  0  0            999 V2000
    0.4619   -0.5121    1.8337 O   0  0
   -3.0888    0.3794   -1.0369 C   0  0
   -2.7219   -0.6107    0.1439 C   0  0  2  0  0  0
   -1.4246   -1.4536   -0.2481 C   0  0  2  0  0  0
   -0.1615   -0.5700   -0.4622 C   0  0  1  0  0  0
    0.1795    0.1566    0.8337 C   0  0
   -1.5817   -2.2170   -1.5098 O   0  0
    0.8381   -1.5656   -0.7636 O   0  0
   -3.7872   -1.5636    0.4405 O   0  0
   -4.2196    1.1801   -0.7320 O   0  0
    2.1235   -1.0153   -1.0362 C   0  0
    3.0743   -2.1069   -1.3796 C   0  0
   -2.5617   -3.2946   -1.5382 C   0  0
   -2.1881   -4.3720   -0.5630 C   0  0
   -4.9944   -1.0196    0.9922 C   0  0
   -5.8847   -2.1762    1.2629 C   0  0
   -4.5019    2.0315   -1.8302 C   0  0
   -5.7319    2.8140   -1.5215 C   0  0
    0.1775    1.6755    0.9441 C   0  0
   -3.1615   -4.8158    0.4306 C   0  0
   -2.8373   -5.7676    1.3014 C   0  0
   -1.5029   -6.3718    1.2605 C   0  0
   -0.6166   -5.9686    0.3512 C   0  0
   -0.9757   -4.9226   -0.6040 C   0  0
   -6.9076   -2.5462    0.2923 C   0  0
   -7.6971   -3.5921    0.5261 C   0  0
   -7.5370   -4.3686    1.7580 C   0  0
   -6.6019   -4.0275    2.6427 C   0  0
   -5.7360   -2.8791    2.3824 C   0  0
   -5.7705    4.2502   -1.7833 C   0  0
   -6.8705    4.9468   -1.5049 C   0  0
   -8.0400    4.2718   -0.9366 C   0  0
   -8.0022    2.9618   -0.6985 C   0  0
   -6.7931    2.1987   -1.0049 C   0  0
    2.5661   -3.4115   -1.8038 C   0  0
    3.4172   -4.3888   -2.1065 C   0  0
    4.8611   -4.1561   -2.0152 C   0  0
    5.3213   -2.9671   -1.6287 C   0  0
    4.3845   -1.8940   -1.2951 C   0  0
   -0.5463    2.2421   -0.0768 F   0  0
    1.7697    2.2015    0.9046 P   0  0
   -0.3215    2.0287    2.1784 F   0  0
    2.3053    1.8848   -0.3252 O   0  0
    1.9184    3.7460    1.1455 O   0  0
    2.5100    1.4560    2.0693 O   0  0
    3.8862    1.8749    2.2697 C   0  0
    4.7986    1.5330    1.0688 C   0  0
    1.4858    4.5360    0.0284 C   0  0
    1.7065    6.0209    0.3511 C   0  0
   -2.2502    1.0508   -1.2306 H   0  0
   -3.2951   -0.2078   -1.9419 H   0  0
   -2.5116   -0.0429    1.0589 H   0  0
   -1.1939   -2.1417    0.5755 H   0  0
   -0.2967    0.1317   -1.2941 H   0  0
    2.5287   -0.4376   -0.1950 H   0  0
    2.0485   -0.3364   -1.8961 H   0  0
   -2.5065   -3.7203   -2.5488 H   0  0
   -3.5758   -2.9275   -1.3425 H   0  0
   -5.4654   -0.3459    0.2719 H   0  0
   -4.7313   -0.5140    1.9309 H   0  0
   -4.7093    1.3796   -2.6898 H   0  0
   -3.6585    2.6979   -2.0588 H   0  0
   -4.1257   -4.3775    0.4576 H   0  0
   -3.5446   -6.0884    2.0239 H   0  0
   -1.2429   -7.1306    1.9542 H   0  0
    0.3492   -6.4055    0.3208 H   0  0
   -0.2711   -4.5980   -1.3270 H   0  0
   -7.0201   -1.9827   -0.5992 H   0  0
   -8.4411   -3.8632   -0.1792 H   0  0
   -8.1654   -5.2021    1.9451 H   0  0
   -6.4845   -4.5893    3.5343 H   0  0
   -4.9866   -2.6087    3.0817 H   0  0
   -4.9229    4.7368   -2.1944 H   0  0
   -6.9000    5.9898   -1.6945 H   0  0
   -8.9165    4.8260   -0.7146 H   0  0
   -8.8482    2.4726   -0.2869 H   0  0
   -6.7607    1.1544   -0.8151 H   0  0
    1.5207   -3.5791   -1.8698 H   0  0
    3.0504   -5.3352   -2.4138 H   0  0
    5.5399   -4.9343   -2.2567 H   0  0
    6.3661   -2.7987   -1.5623 H   0  0
    4.7485   -0.9469   -0.9852 H   0  0
    4.2806    1.3554    3.1543 H   0  0
    3.9098    2.9590    2.4507 H   0  0
    5.8255    1.8577    1.2881 H   0  0
    4.4413    2.0494    0.1702 H   0  0
    4.7856    0.4458    0.8967 H   0  0
    0.4228    4.3656   -0.1665 H   0  0
    2.0717    4.2641   -0.8609 H   0  0
    1.3790    6.6337   -0.5011 H   0  0
    2.7747    6.1984    0.5424 H   0  0
    1.1239    6.2915    1.2435 H   0  0
  3  2  1  0
  4  3  1  0
  5  4  1  0
  5  6  1  0
  6  1  2  0
  4  7  1  0
  5  8  1  0
  3  9  1  0
  2 10  1  0
 11 12  1  0
  8 11  1  0
 13 14  1  0
  7 13  1  0
 15 16  1  0
  9 15  1  0
 17 18  1  0
 10 17  1  0
  6 19  1  0
 20 21  2  0
 21 22  1  0
 22 23  2  0
 23 24  1  0
 14 20  1  0
 14 24  2  0
 25 26  2  0
 26 27  1  0
 27 28  2  0
 28 29  1  0
 16 25  1  0
 16 29  2  0
 30 31  2  0
 31 32  1  0
 32 33  2  0
 33 34  1  0
 18 30  1  0
 18 34  2  0
 35 36  2  0
 36 37  1  0
 37 38  2  0
 38 39  1  0
 12 35  1  0
 12 39  2  0
 19 40  1  0
 19 41  1  0
 19 42  1  0
 41 43  2  0
 41 44  1  0
 41 45  1  0
 46 47  1  0
 45 46  1  0
 48 49  1  0
 44 48  1  0
  2 50  1  0
  2 51  1  0
  3 52  1  0
  4 53  1  0
  5 54  1  0
 11 55  1  0
 11 56  1  0
 13 57  1  0
 13 58  1  0
 15 59  1  0
 15 60  1  0
 17 61  1  0
 17 62  1  0
 20 63  1  0
 21 64  1  0
 22 65  1  0
 23 66  1  0
 24 67  1  0
 25 68  1  0
 26 69  1  0
 27 70  1  0
 28 71  1  0
 29 72  1  0
 30 73  1  0
 31 74  1  0
 32 75  1  0
 33 76  1  0
 34 77  1  0
 35 78  1  0
 36 79  1  0
 37 80  1  0
 38 81  1  0
 39 82  1  0
 46 83  1  0
 46 84  1  0
 47 85  1  0
 47 86  1  0
 47 87  1  0
 48 88  1  0
 48 89  1  0
 49 90  1  0
 49 91  1  0
 49 92  1  0
M  END
> <Name>
DFD2009_62

> <Clean Energy>
56.327

$$$$
DFD2009_1S
  SciTegic12132405553D

 44 44  0  0  0  0            999 V2000
   -8.4455    2.8776    0.2076 C   0  0
   -9.6349    2.7648   -0.3764 C   0  0
   -9.7712    1.9732   -1.5989 C   0  0
   -8.7082    1.3716   -2.1221 C   0  0
   -7.3962    1.4943   -1.4842 C   0  0
   -7.2618    2.2207   -0.3577 C   0  0
   -6.0235    2.4063    0.3475 O   0  0
   -4.8631    1.7640   -0.2067 C   0  0
   -3.6481    2.0771    0.6691 C   0  0  2  0  0  0
   -2.4109    1.3925    0.0741 C   0  0
   -1.2686    1.6796    0.8833 O   0  0
  -10.7447    3.4132    0.2052 N   0  0
   -3.8756    1.5721    2.0262 N   0  0
  -12.1665    3.3452   -0.4404 P   0  0
  -13.1356    4.2510    0.3659 O   0  0
  -12.1060    3.8060   -1.7404 O   0  0
  -12.6782    1.8733   -0.4362 O   0  0
  -14.4139    4.3002   -0.2828 C   0  0
  -15.3624    5.1921    0.5318 C   0  0
  -12.6983    1.3516    0.9036 C   0  0
  -13.2050   -0.0965    0.8741 C   0  0
   -8.3516    3.4511    1.0944 H   0  0
  -10.7150    1.8755   -2.0697 H   0  0
   -8.8111    0.7981   -3.0081 H   0  0
   -6.5758    1.0014   -1.9320 H   0  0
   -5.0194    0.6759   -0.2369 H   0  0
   -4.6816    2.1397   -1.2240 H   0  0
   -3.4877    3.1639    0.7028 H   0  0
   -2.5754    0.3060    0.0432 H   0  0
   -2.2428    1.7675   -0.9455 H   0  0
   -1.1186    2.6568    0.9094 H   0  0
  -10.6168    3.9346    1.0413 H   0  0
   -3.0548    1.7793    2.6112 H   0  0
   -4.0233    0.5544    1.9892 H   0  0
  -14.8309    3.2852   -0.3481 H   0  0
  -14.2972    4.7146   -1.2940 H   0  0
  -16.3436    5.2314    0.0370 H   0  0
  -14.9437    6.2066    0.5984 H   0  0
  -15.4774    4.7753    1.5429 H   0  0
  -13.3671    1.9629    1.5257 H   0  0
  -11.6824    1.3767    1.3224 H   0  0
  -13.2219   -0.4998    1.8969 H   0  0
  -12.5348   -0.7053    0.2501 H   0  0
  -14.2206   -0.1198    0.4532 H   0  0
  1  2  2  0
  2  3  1  0
  3  4  2  0
  4  5  1  0
  5  6  2  0
  1  6  1  0
  7  8  1  0
  8  9  1  0
  9 10  1  0
 10 11  1  0
  6  7  1  0
  2 12  1  0
  9 13  1  0
 12 14  1  0
 14 15  1  0
 14 16  2  0
 14 17  1  0
 18 19  1  0
 15 18  1  0
 20 21  1  0
 17 20  1  0
  1 22  1  0
  3 23  1  0
  4 24  1  0
  5 25  1  0
  8 26  1  0
  8 27  1  0
  9 28  1  0
 10 29  1  0
 10 30  1  0
 11 31  1  0
 12 32  1  0
 13 33  1  0
 13 34  1  0
 18 35  1  0
 18 36  1  0
 19 37  1  0
 19 38  1  0
 19 39  1  0
 20 40  1  0
 20 41  1  0
 21 42  1  0
 21 43  1  0
 21 44  1  0
M  END
> <Name>
DFD2009_1S

> <Clean Energy>
-4.28662

$$$$
DFD2009_6S
  SciTegic12132405553D

 28 28  0  0  0  0            999 V2000
    2.0648    0.7754   -0.6397 C   0  0  2  0  0  0
    1.9879   -0.4834    0.2689 C   0  0  2  0  0  0
    3.1297   -1.1581   -0.4269 C   0  0  1  0  0  0
    4.2163   -0.0330   -0.2723 C   0  0  1  0  0  0
    3.4872    1.1948   -0.6101 O   0  0
    1.0996    1.9071   -0.2626 C   0  0
   -0.2426    1.4341   -0.3318 O   0  0
   -1.2082    2.5748    0.0589 P   0  0
   -2.6666    2.0611   -0.0166 O   0  0
    0.7445   -1.1913    0.1995 O   0  0
    3.5107   -2.4524    0.0648 O   0  0
    4.7894    0.0548    1.0324 O   0  0
   -0.8978    3.0394    1.5032 O   0  0
   -1.0466    3.6337   -0.8114 O   0  0
    5.3949   -0.4121   -1.2516 C   0  0
    5.9333   -1.6141   -0.8467 F   0  0
    6.3782    0.5535   -1.2107 F   0  0
    1.8479    0.4329   -1.6606 H   0  0
    2.2136   -0.2663    1.3126 H   0  0
    2.8450   -1.2516   -1.4840 H   0  0
    1.2274    2.7450   -0.9614 H   0  0
    1.3186    2.2448    0.7598 H   0  0
   -2.8624    1.7617   -0.9392 H   0  0
    0.0242   -0.6496    0.6003 H   0  0
    3.7193   -2.4086    1.0245 H   0  0
    5.4525    0.7874    1.0533 H   0  0
   -1.0105    2.2780    2.1254 H   0  0
    5.0350   -0.5160   -2.2813 H   0  0
  2  1  1  0
  3  2  1  0
  4  3  1  0
  4  5  1  0
  1  5  1  0
  6  7  1  0
  7  8  1  0
  8  9  1  0
  1  6  1  0
  2 10  1  0
  3 11  1  0
  4 12  1  0
  8 13  1  0
  8 14  2  0
  4 15  1  0
 15 16  1  0
 15 17  1  0
  1 18  1  0
  2 19  1  0
  3 20  1  0
  6 21  1  0
  6 22  1  0
  9 23  1  0
 10 24  1  0
 11 25  1  0
 12 26  1  0
 13 27  1  0
 15 28  1  0
M  END
> <Name>
DFD2009_6S

> <Clean Energy>
33.69

$$$$
APB2007-4
  SciTegic12132405553D

 81 82  0  0  0  0            999 V2000
   -4.3256    3.6929    0.5337 O   0  0
   -5.4873    3.5920    1.3704 C   0  0
   -5.1531    2.6080    2.5169 C   0  0  1  0  0  0
   -4.1141    3.2003    3.3343 O   0  0
   -3.5882    2.3330    4.3661 C   0  0  1  0  0  0
   -2.6035    3.0162    5.1704 O   0  0
   -4.7331    1.8945    5.3240 C   0  0  2  0  0  0
   -4.2336    0.9508    6.2886 O   0  0
   -5.8927    1.2460    4.5152 C   0  0  1  0  0  0
   -6.9711    0.8978    5.4022 O   0  0
   -6.3803    2.2206    3.3989 C   0  0  1  0  0  0
   -6.9413    3.4230    3.9528 O   0  0
   -2.9426    6.6235    3.3445 O   0  0
   -2.2239    5.8817    4.3369 C   0  0
   -1.4467    4.7120    3.6710 C   0  0  1  0  0  0
   -0.1236    5.1800    3.2971 O   0  0
    0.7230    4.2071    2.6348 C   0  0  1  0  0  0
    1.9760    4.7778    2.4182 N   0  0
    0.8812    2.9230    3.5036 C   0  0  2  0  0  0
    1.6259    1.9249    2.7830 O   0  0
   -0.5112    2.3518    3.8885 C   0  0  1  0  0  0
   -0.4110    1.0854    4.5689 O   0  0
   -1.3450    3.4614    4.6022 C   0  0  2  0  0  0
   -3.7750    4.8071   -0.0252 C   0  0
   -4.3399    5.9233    0.0379 O   0  0
   -2.5015    4.6694   -0.7435 C   0  0
   -8.1671    3.6154    4.5197 C   0  0
   -8.4598    4.9420    5.0743 C   0  0
   -9.0322    2.7092    4.5598 O   0  0
   -7.4114   -0.3355    5.7980 C   0  0
   -6.6901   -1.5947    5.5336 C   0  0
   -8.4713   -0.3619    6.4631 O   0  0
   -4.3301    0.9787    7.6530 C   0  0
   -5.1141    1.9733    8.4095 C   0  0
   -3.7291    0.0740    8.2741 O   0  0
   -3.7651    7.6851    3.5812 C   0  0
   -3.9049    8.1592    4.7336 O   0  0
   -4.4970    8.2738    2.4534 C   0  0
   -0.5775    0.7213    5.8746 C   0  0
   -0.5693   -0.7070    6.2145 C   0  0
   -0.7242    1.5560    6.7962 O   0  0
    2.7712    1.2838    3.1636 C   0  0
    3.4390    1.5085    4.4594 C   0  0
    3.2486    0.4541    2.3572 O   0  0
    2.2063    5.5762    1.6017 N   0  0
    2.4436    6.3660    0.7823 N   0  0
   -5.6338    4.5833    1.7993 H   0  0
   -6.2648    3.1463    0.7500 H   0  0
   -4.7497    1.6899    2.0899 H   0  0
   -3.0886    1.5232    3.8343 H   0  0
   -5.0887    2.7405    5.9121 H   0  0
   -5.5890    0.2930    4.0820 H   0  0
   -7.2040    1.7813    2.8362 H   0  0
   -1.4953    6.5822    4.7450 H   0  0
   -2.9897    5.4535    4.9836 H   0  0
   -1.9379    4.4184    2.7433 H   0  0
    0.2998    4.0124    1.6494 H   0  0
    1.4760    3.1337    4.3924 H   0  0
   -1.0747    1.9973    3.0254 H   0  0
   -0.8811    3.7296    5.5513 H   0  0
   -1.6867    4.5814   -0.0248 H   0  0
   -2.5319    3.7775   -1.3693 H   0  0
   -2.3406    5.5472   -1.3693 H   0  0
   -8.4486    4.8912    6.1631 H   0  0
   -7.7050    5.6519    4.7359 H   0  0
   -9.4432    5.2684    4.7359 H   0  0
   -6.4209   -2.0647    6.4794 H   0  0
   -7.3305   -2.2673    4.9629 H   0  0
   -5.7860   -1.3826    4.9629 H   0  0
   -4.9809    1.8043    9.4781 H   0  0
   -4.7714    2.9761    8.1547 H   0  0
   -6.1692    1.8742    8.1547 H   0  0
   -4.9026    7.4783    1.8284 H   0  0
   -5.3125    8.8903    2.8316 H   0  0
   -3.8194    8.8903    1.8627 H   0  0
   -0.5686   -0.8225    7.2984 H   0  0
   -1.4566   -1.1845    5.7988 H   0  0
    0.3234   -1.1744    5.7988 H   0  0
    3.6752    0.5481    4.9177 H   0  0
    4.3587    2.0716    4.3013 H   0  0
    2.7765    2.0716    5.1167 H   0  0
  1  2  1  0
  3  2  1  0
  3  4  1  0
  5  4  1  0
  5  6  1  0
  7  5  1  0
  7  8  1  0
  7  9  1  0
  9 10  1  0
  9 11  1  0
 11  3  1  0
 11 12  1  0
 13 14  1  0
 15 14  1  0
 15 16  1  0
 17 16  1  0
 17 18  1  0
 19 17  1  0
 19 20  1  0
 19 21  1  0
 21 22  1  0
 21 23  1  0
 23 15  1  0
 23  6  1  0
  1 24  1  0
 24 26  1  0
 24 25  2  0
 12 27  1  0
 27 28  1  0
 27 29  2  0
 10 30  1  0
 30 31  1  0
 30 32  2  0
  8 33  1  0
 33 34  1  0
 33 35  2  0
 13 36  1  0
 36 38  1  0
 36 37  2  0
 22 39  1  0
 39 40  1  0
 39 41  2  0
 20 42  1  0
 42 43  1  0
 42 44  2  0
 18 45  2  0
 45 46  2  0
  2 47  1  0
  2 48  1  0
  3 49  1  0
  5 50  1  0
  7 51  1  0
  9 52  1  0
 11 53  1  0
 14 54  1  0
 14 55  1  0
 15 56  1  0
 17 57  1  0
 19 58  1  0
 21 59  1  0
 23 60  1  0
 26 61  1  0
 26 62  1  0
 26 63  1  0
 28 64  1  0
 28 65  1  0
 28 66  1  0
 31 67  1  0
 31 68  1  0
 31 69  1  0
 34 70  1  0
 34 71  1  0
 34 72  1  0
 38 73  1  0
 38 74  1  0
 38 75  1  0
 40 76  1  0
 40 77  1  0
 40 78  1  0
 43 79  1  0
 43 80  1  0
 43 81  1  0
M  END
> <Name>
APB2007-4

$$$$
APB2007-6
  SciTegic12132405553D

 86 87  0  0  0  0            999 V2000
   -3.0648   -1.9447   -3.5327 O   0  0
   -4.2359   -1.7771   -2.7202 C   0  0
   -4.2223   -2.7865   -1.5479 C   0  0  1  0  0  0
   -3.2041   -2.3964   -0.6023 O   0  0
   -2.9842   -3.3282    0.4827 C   0  0  1  0  0  0
   -1.8863   -2.8871    1.3189 O   0  0
   -4.2836   -3.4437    1.3340 C   0  0  2  0  0  0
   -4.1489   -4.4987    2.3049 O   0  0
   -5.4834   -3.8082    0.4168 C   0  0  1  0  0  0
   -6.6887   -3.7361    1.1970 O   0  0
   -5.5925   -2.8733   -0.8178 C   0  0  1  0  0  0
   -5.9909   -1.5694   -0.3666 O   0  0
   -1.0522    0.3711   -1.0562 O   0  0
   -0.6091   -0.3958    0.0733 C   0  0
   -0.2837   -1.8540   -0.3589 C   0  0  1  0  0  0
    1.0851   -1.8911   -0.8277 O   0  0
    1.5179   -3.1840   -1.3130 C   0  0  1  0  0  0
    2.8388   -3.0737   -1.8481 N   0  0
    1.4667   -4.2191   -0.1575 C   0  0  2  0  0  0
    1.8329   -5.5254   -0.6426 O   0  0
    0.0260   -4.2996    0.4165 C   0  0  1  0  0  0
    0.0833   -5.2268    1.5120 O   0  0
   -0.5240   -2.8843    0.7986 C   0  0  2  0  0  0
   -2.7735   -1.2529   -4.6744 C   0  0
   -3.5049   -0.3166   -5.0723 O   0  0
   -1.5786   -1.6161   -5.4468 C   0  0
   -7.1247   -0.8836   -0.6909 C   0  0
   -7.3478    0.4385   -0.0979 C   0  0
   -7.9811   -1.3505   -1.4783 O   0  0
   -7.8715   -4.3652    0.9533 C   0  0
   -7.9755   -5.7939    0.6125 C   0  0
   -8.9170   -3.7005    1.1279 O   0  0
   -4.4462   -4.5409    3.6415 C   0  0
   -5.1885   -3.4038    4.3257 C   0  0
   -4.0632   -5.6316    4.1793 O   0  0
   -1.4901    1.6648   -1.0258 C   0  0
   -1.4841    2.3268    0.0382 O   0  0
   -2.0157    2.2729   -2.2555 C   0  0
   -0.9608   -5.6723    2.2528 C   0  0
   -1.5390   -6.9949    1.9835 C   0  0
   -1.3552   -4.9886    3.2237 O   0  0
    2.6722   -6.4562   -0.0934 C   0  0
    3.3946   -6.2759    1.1815 C   0  0
    2.7995   -7.5300   -0.7243 O   0  0
    3.1630   -2.3325   -2.9443 C   0  0
    4.5608   -2.3083   -3.4041 C   0  0
    2.2985   -1.6751   -3.5739 O   0  0
   -4.1533   -0.7746   -2.3004 H   0  0
   -5.0745   -2.0286   -3.3695 H   0  0
   -3.9480   -3.7715   -1.9255 H   0  0
   -2.6688   -4.2692    0.0319 H   0  0
   -4.4488   -2.5246    1.8962 H   0  0
   -5.3975   -4.8377    0.0693 H   0  0
   -6.3710   -3.2018   -1.5064 H   0  0
    0.3203    0.0764    0.3917 H   0  0
   -1.4636   -0.4277    0.7493 H   0  0
   -0.8945   -2.1514   -1.2113 H   0  0
    0.8820   -3.4639   -2.1529 H   0  0
    3.6095   -3.5614   -1.4142 H   0  0
    2.2009   -3.9668    0.6076 H   0  0
   -0.6977   -4.7337   -0.2733 H   0  0
   -0.0177   -2.5410    1.7008 H   0  0
   -0.7657   -1.8631   -4.7639 H   0  0
   -1.8003   -2.4789   -6.0749 H   0  0
   -1.2827   -0.7758   -6.0749 H   0  0
   -7.3340    0.3564    0.9889 H   0  0
   -6.5602    1.1192   -0.4209 H   0  0
   -8.3153    0.8230   -0.4209 H   0  0
   -8.0184   -6.3837    1.5281 H   0  0
   -8.8801   -5.9632    0.0285 H   0  0
   -7.1049   -6.0924    0.0285 H   0  0
   -5.1131   -3.5193    5.4069 H   0  0
   -4.7471   -2.4520    4.0303 H   0  0
   -6.2375   -3.4251    4.0303 H   0  0
   -2.3129    1.4878   -2.9508 H   0  0
   -2.8805    2.8910   -2.0143 H   0  0
   -1.2437    2.8910   -2.7138 H   0  0
   -1.7576   -7.4949    2.9271 H   0  0
   -2.4598   -6.8793    1.4117 H   0  0
   -0.8289   -7.5924    1.4117 H   0  0
    3.6343   -7.2515    1.6044 H   0  0
    4.3157   -5.7215    1.0018 H   0  0
    2.7671   -5.7215    1.8794 H   0  0
    5.2269   -2.2968   -2.5414 H   0  0
    4.7609   -3.1950   -4.0057 H   0  0
    4.7300   -1.4153   -4.0057 H   0  0
  1  2  1  0
  3  2  1  0
  3  4  1  0
  4  5  1  0
  5  6  1  0
  5  7  1  0
  7  8  1  0
  7  9  1  0
  9 10  1  0
  9 11  1  0
  3 11  1  0
 11 12  1  0
 13 14  1  0
 15 14  1  0
 15 16  1  0
 17 16  1  0
 17 18  1  0
 19 17  1  0
 19 20  1  0
 21 19  1  0
 21 22  1  0
 23 21  1  0
 23 15  1  0
 23  6  1  0
  1 24  1  0
 24 26  1  0
 24 25  2  0
 12 27  1  0
 27 28  1  0
 27 29  2  0
 10 30  1  0
 30 31  1  0
 30 32  2  0
  8 33  1  0
 33 34  1  0
 33 35  2  0
 13 36  1  0
 36 38  1  0
 36 37  2  0
 22 39  1  0
 39 40  1  0
 39 41  2  0
 20 42  1  0
 42 43  1  0
 42 44  2  0
 18 45  1  0
 45 46  1  0
 45 47  2  0
  2 48  1  0
  2 49  1  0
  3 50  1  0
  5 51  1  0
  7 52  1  0
  9 53  1  0
 11 54  1  0
 14 55  1  0
 14 56  1  0
 15 57  1  0
 17 58  1  0
 18 59  1  0
 19 60  1  0
 21 61  1  0
 23 62  1  0
 26 63  1  0
 26 64  1  0
 26 65  1  0
 28 66  1  0
 28 67  1  0
 28 68  1  0
 31 69  1  0
 31 70  1  0
 31 71  1  0
 34 72  1  0
 34 73  1  0
 34 74  1  0
 38 75  1  0
 38 76  1  0
 38 77  1  0
 40 78  1  0
 40 79  1  0
 40 80  1  0
 43 81  1  0
 43 82  1  0
 43 83  1  0
 46 84  1  0
 46 85  1  0
 46 86  1  0
M  END
> <Name>
APB2007-6

$$$$
APB2007-7
  SciTegic12132405553D

 93 95  0  0  0  0            999 V2000
    0.5583   -2.0415   -9.9696 O   0  0
   -0.6381   -1.8546   -9.1944 C   0  0
   -0.7902   -3.0247   -8.1928 C   0  0  1  0  0  0
    0.3401   -2.9963   -7.2927 O   0  0
    0.4280   -4.1151   -6.3846 C   0  0  1  0  0  0
    1.5308   -3.9536   -5.4626 O   0  0
   -0.8597   -4.2203   -5.5204 C   0  0  2  0  0  0
   -0.8305   -5.4474   -4.7665 O   0  0
   -2.1502   -4.1905   -6.3877 C   0  0  1  0  0  0
   -3.2660   -4.1253   -5.4801 O   0  0
   -2.1123   -2.9793   -7.3692 C   0  0  1  0  0  0
   -2.1735   -1.7634   -6.5998 O   0  0
    3.1954   -0.0436   -6.2603 O   0  0
    3.0005   -1.2840   -5.5633 C   0  0
    3.2987   -2.4619   -6.5244 C   0  0  1  0  0  0
    4.7138   -2.4328   -6.8432 O   0  0
    5.1382   -3.4323   -7.8008 C   0  0  1  0  0  0
    6.5333   -3.2816   -8.0880 N   0  0
    4.8540   -4.8625   -7.2609 C   0  0  2  0  0  0
    5.1912   -5.8270   -8.2770 O   0  0
    3.3423   -4.9905   -6.9007 C   0  0  1  0  0  0
    3.0066   -6.3061   -6.4213 O   0  0
    2.9002   -3.8516   -5.9286 C   0  0  2  0  0  0
    1.6636   -1.2396  -10.0315 C   0  0
    1.7485   -0.1847   -9.3590 O   0  0
    2.7778   -1.6449  -10.9033 C   0  0
   -3.1429   -0.8037   -6.5934 C   0  0
   -3.0112    0.3338   -5.6742 C   0  0
   -4.1482   -0.8773   -7.3375 O   0  0
   -4.6101   -4.2525   -5.6873 C   0  0
   -5.2543   -4.6531   -6.9492 C   0  0
   -5.3413   -4.0294   -4.6967 O   0  0
   -0.8997   -5.6580   -3.4159 C   0  0
   -1.1560   -4.5054   -2.4569 C   0  0
   -0.7507   -6.8863   -3.1096 O   0  0
    4.1076    0.9374   -6.0059 C   0  0
    4.9350    0.8425   -5.0694 O   0  0
    4.1117    2.1172   -6.8802 C   0  0
    3.4631   -6.9780   -5.3260 C   0  0
    3.0234   -8.3654   -5.1264 C   0  0
    4.2398   -6.4380   -4.5054 O   0  0
    6.1071   -6.8435   -8.2617 C   0  0
    6.9095   -7.2316   -7.0875 C   0  0
    6.2522   -7.4763   -9.3319 O   0  0
    7.0827   -2.2467   -8.7913 C   0  0
    8.4725   -2.2186   -9.1109 C   0  0
    6.3365   -1.3202   -9.1939 O   0  0
    9.4291   -2.9318   -8.3423 C   0  0
    8.9412   -1.4785  -10.2279 C   0  0
   10.3048   -1.4688  -10.5781 C   0  0
   11.2333   -2.1926   -9.8111 C   0  0
   10.7954   -2.9169   -8.6887 C   0  0
   -0.4755   -0.9405   -8.6233 H   0  0
   -1.4599   -1.9124   -9.9082 H   0  0
   -0.7600   -3.9669   -8.7400 H   0  0
    0.6273   -4.9734   -7.0262 H   0  0
   -0.8792   -3.4083   -4.7935 H   0  0
   -2.3056   -5.1007   -6.9670 H   0  0
   -2.9806   -2.9503   -8.0275 H   0  0
    3.7499   -1.2945   -4.7718 H   0  0
    1.9406   -1.3129   -5.3106 H   0  0
    2.7561   -2.3239   -7.4597 H   0  0
    4.6108   -3.2173   -8.7301 H   0  0
    7.1944   -3.9725   -7.7629 H   0  0
    5.4889   -5.1034   -6.4083 H   0  0
    2.7343   -4.9503   -7.8046 H   0  0
    3.3683   -3.9833   -4.9531 H   0  0
    3.6250   -1.9531  -10.2906 H   0  0
    2.4625   -2.4772  -11.5325 H   0  0
    3.0710   -0.8045  -11.5325 H   0  0
   -3.0526   -0.0237   -4.6454 H   0  0
   -2.0575    0.8324   -5.8475 H   0  0
   -3.8256    1.0372   -5.8475 H   0  0
   -5.2861   -5.7409   -7.0115 H   0  0
   -6.2695   -4.2575   -6.9805 H   0  0
   -4.6841   -4.2575   -7.7897 H   0  0
   -1.0766   -4.8626   -1.4302 H   0  0
   -0.4188   -3.7207   -2.6267 H   0  0
   -2.1563   -4.1071   -2.6267 H   0  0
    4.1148    3.0210   -6.2708 H   0  0
    5.0016    2.1002   -7.5093 H   0  0
    3.2216    2.1063   -7.5093 H   0  0
    2.9568   -8.5755   -4.0589 H   0  0
    2.0451   -8.5063   -5.5861 H   0  0
    3.7419   -9.0440   -5.5861 H   0  0
    6.9547   -8.3187   -7.0215 H   0  0
    7.9184   -6.8316   -7.1886 H   0  0
    6.4489   -6.8316   -6.1843 H   0  0
    9.1086   -3.5015   -7.4700 H   0  0
    8.2376   -0.9044  -10.8308 H   0  0
   10.6422   -0.8999  -11.4445 H   0  0
   12.2882   -2.1922  -10.0854 H   0  0
   11.5170   -3.4682   -8.0858 H   0  0
  1  2  1  0
  3  2  1  0
  3  4  1  0
  5  4  1  0
  5  6  1  0
  7  5  1  0
  7  8  1  0
  7  9  1  0
  9 10  1  0
  9 11  1  0
 11  3  1  0
 11 12  1  0
 13 14  1  0
 15 14  1  0
 15 16  1  0
 17 16  1  0
 17 18  1  0
 19 17  1  0
 19 20  1  0
 19 21  1  0
 21 22  1  0
 21 23  1  0
 23 15  1  0
 23  6  1  0
  1 24  1  0
 24 26  1  0
 24 25  2  0
 12 27  1  0
 27 28  1  0
 27 29  2  0
 10 30  1  0
 30 31  1  0
 30 32  2  0
  8 33  1  0
 33 34  1  0
 33 35  2  0
 13 36  1  0
 36 38  1  0
 36 37  2  0
 22 39  1  0
 39 40  1  0
 39 41  2  0
 20 42  1  0
 42 43  1  0
 42 44  2  0
 18 45  1  0
 45 46  1  0
 45 47  2  0
 49 50  1  0
 50 51  2  0
 51 52  1  0
 48 52  2  0
 48 46  1  0
 46 49  2  0
  2 53  1  0
  2 54  1  0
  3 55  1  0
  5 56  1  0
  7 57  1  0
  9 58  1  0
 11 59  1  0
 14 60  1  0
 14 61  1  0
 15 62  1  0
 17 63  1  0
 18 64  1  0
 19 65  1  0
 21 66  1  0
 23 67  1  0
 26 68  1  0
 26 69  1  0
 26 70  1  0
 28 71  1  0
 28 72  1  0
 28 73  1  0
 31 74  1  0
 31 75  1  0
 31 76  1  0
 34 77  1  0
 34 78  1  0
 34 79  1  0
 38 80  1  0
 38 81  1  0
 38 82  1  0
 40 83  1  0
 40 84  1  0
 40 85  1  0
 43 86  1  0
 43 87  1  0
 43 88  1  0
 48 89  1  0
 49 90  1  0
 50 91  1  0
 51 92  1  0
 52 93  1  0
M  END
> <Name>
APB2007-7

$$$$
APB2007-8
  SciTegic12132405553D

 87 88  0  0  0  0            999 V2000
    1.6619   -2.3716    4.1216 O   0  0
    0.3683   -2.6353    4.6896 C   0  0
   -0.6414   -2.9062    3.5467 C   0  0  1  0  0  0
   -0.2866   -4.1592    2.9224 O   0  0
   -1.0487   -4.4882    1.7414 C   0  0  1  0  0  0
   -0.6482   -5.7662    1.2082 O   0  0
   -2.5566   -4.5860    2.0886 C   0  0  2  0  0  0
   -3.3122   -4.7802    0.8789 O   0  0
   -3.0233   -3.2765    2.7810 C   0  0  1  0  0  0
   -4.4047   -3.4042    3.1608 O   0  0
   -2.1266   -2.9640    4.0201 C   0  0  1  0  0  0
   -2.2461   -3.9728    5.0437 O   0  0
    2.1276   -6.8773    4.0330 O   0  0
    1.5284   -7.1875    2.7690 C   0  0
    1.8109   -6.0575    1.7388 C   0  0  1  0  0  0
    3.1002   -6.3092    1.1248 O   0  0
    3.5103   -5.3593    0.1133 C   0  0  1  0  0  0
    4.8250   -5.7518   -0.4325 N   0  0
    2.4681   -5.3152   -1.0382 C   0  0  2  0  0  0
    2.8678   -4.3503   -2.0267 O   0  0
    1.0830   -4.9251   -0.4484 C   0  0  1  0  0  0
    0.1374   -4.6839   -1.5083 O   0  0
    0.6817   -5.9518    0.6602 C   0  0  2  0  0  0
    2.8292   -3.0578    4.2909 C   0  0
    2.9090   -4.0541    5.0467 O   0  0
    4.0090   -2.5949    3.5481 C   0  0
   -3.2597   -4.1540    5.9392 C   0  0
   -3.1928   -5.2971    6.8587 C   0  0
   -4.2264   -3.3601    6.0031 O   0  0
   -5.4943   -2.7030    2.7233 C   0  0
   -5.4688   -1.7406    1.6055 C   0  0
   -6.5705   -2.9256    3.3197 O   0  0
   -4.2444   -5.7350    0.5845 C   0  0
   -4.7693   -6.6998    1.5683 C   0  0
   -4.6882   -5.7459   -0.5863 O   0  0
    2.0536   -7.6440    5.1612 C   0  0
    1.4924   -8.7656    5.1518 O   0  0
    2.6501   -7.1330    6.4026 C   0  0
   -0.9764   -5.3500   -1.9391 C   0  0
   -1.7793   -4.7503   -3.0164 C   0  0
   -1.3214   -6.4626   -1.4781 O   0  0
    3.0274   -4.5200   -3.3736 C   0  0
    2.6777   -5.8614   -4.1550 C   0  0
    3.4428   -3.5433   -4.0321 O   0  0
    6.1693   -5.4481    0.6683 S   0  0
    5.9820   -6.3141    2.0037 O   0  0
    6.2239   -3.8900    1.0375 O   0  0
    7.7331   -5.9076   -0.1597 C   0  0
    0.4834   -3.5538    5.2651 H   0  0
    0.0748   -1.7121    5.1894 H   0  0
   -0.5504   -2.1204    2.7968 H   0  0
   -0.7953   -3.7199    1.0109 H   0  0
   -2.7618   -5.4579    2.7098 H   0  0
   -3.0098   -2.4352    2.0881 H   0  0
   -2.4642   -2.0540    4.5160 H   0  0
    2.0374   -8.0888    2.4275 H   0  0
    0.4556   -7.2069    2.9610 H   0  0
    1.9035   -5.0936    2.2393 H   0  0
    3.6119   -4.3998    0.6202 H   0  0
    4.8083   -6.1451   -1.3627 H   0  0
    2.4271   -6.2597   -1.5806 H   0  0
    1.0508   -3.9354    0.0071 H   0  0
    0.5051   -6.9259    0.2042 H   0  0
    4.7845   -2.2906    4.2510 H   0  0
    4.3840   -3.4038    2.9211 H   0  0
    3.7339   -1.7468    2.9211 H   0  0
   -3.2138   -4.9376    7.8875 H   0  0
   -4.0459   -5.9531    6.6855 H   0  0
   -2.2690   -5.8491    6.6855 H   0  0
   -5.4473   -2.2824    0.6600 H   0  0
   -6.3599   -1.1141    1.6452 H   0  0
   -4.5804   -1.1141    1.6856 H   0  0
   -4.5710   -6.3352    2.5762 H   0  0
   -5.8443   -6.8133    1.4280 H   0  0
   -4.2808   -7.6640    1.4280 H   0  0
    2.9524   -7.9700    7.0319 H   0  0
    3.5223   -6.5248    6.1631 H   0  0
    1.9180   -6.5248    6.9339 H   0  0
   -2.2279   -5.5406   -3.6182 H   0  0
   -2.5660   -4.1330   -2.5826 H   0  0
   -1.1388   -4.1330   -3.6463 H   0  0
    2.4706   -6.6560   -3.4381 H   0  0
    1.8003   -5.6991   -4.7810 H   0  0
    3.5227   -6.1480   -4.7810 H   0  0
    8.4904   -6.1302    0.5920 H   0  0
    7.5696   -6.7872   -0.7824 H   0  0
    8.0715   -5.0795   -0.7824 H   0  0
  1  2  1  0
  3  2  1  0
  3  4  1  0
  5  4  1  0
  5  6  1  0
  7  5  1  0
  7  8  1  0
  7  9  1  0
  9 10  1  0
  9 11  1  0
 11  3  1  0
 11 12  1  0
 13 14  1  0
 15 14  1  0
 15 16  1  0
 17 16  1  0
 17 18  1  0
 19 17  1  0
 19 20  1  0
 19 21  1  0
 21 22  1  0
 21 23  1  0
 23 15  1  0
 23  6  1  0
  1 24  1  0
 24 26  1  0
 24 25  2  0
 12 27  1  0
 27 28  1  0
 27 29  2  0
 10 30  1  0
 30 31  1  0
 30 32  2  0
  8 33  1  0
 33 34  1  0
 33 35  2  0
 13 36  1  0
 36 38  1  0
 36 37  2  0
 22 39  1  0
 39 40  1  0
 39 41  2  0
 20 42  1  0
 42 43  1  0
 42 44  2  0
 18 45  1  0
 45 48  1  0
 45 46  2  0
 45 47  2  0
  2 49  1  0
  2 50  1  0
  3 51  1  0
  5 52  1  0
  7 53  1  0
  9 54  1  0
 11 55  1  0
 14 56  1  0
 14 57  1  0
 15 58  1  0
 17 59  1  0
 18 60  1  0
 19 61  1  0
 21 62  1  0
 23 63  1  0
 26 64  1  0
 26 65  1  0
 26 66  1  0
 28 67  1  0
 28 68  1  0
 28 69  1  0
 31 70  1  0
 31 71  1  0
 31 72  1  0
 34 73  1  0
 34 74  1  0
 34 75  1  0
 38 76  1  0
 38 77  1  0
 38 78  1  0
 40 79  1  0
 40 80  1  0
 40 81  1  0
 43 82  1  0
 43 83  1  0
 43 84  1  0
 48 85  1  0
 48 86  1  0
 48 87  1  0
M  END
> <Name>
APB2007-8

$$$$
APB2007-9
  SciTegic12132405553D

 94 96  0  0  0  0            999 V2000
   -1.7426   -4.2733   -0.6673 O   0  0
   -2.8413   -4.2215    0.2555 C   0  0
   -2.6458   -5.3085    1.3418 C   0  0  1  0  0  0
   -1.5334   -4.9172    2.1807 O   0  0
   -1.1465   -5.8900    3.1780 C   0  0  1  0  0  0
   -0.0826   -5.3847    4.0125 O   0  0
   -2.3443   -6.2002    4.1165 C   0  0  2  0  0  0
   -1.9866   -7.2734    5.0040 O   0  0
   -3.5810   -6.6273    3.2823 C   0  0  1  0  0  0
   -4.7055   -6.8137    4.1575 O   0  0
   -3.9163   -5.5489    2.2125 C   0  0  1  0  0  0
   -4.3081   -4.3140    2.8454 O   0  0
    0.4011   -1.5471    2.3913 O   0  0
    0.7885   -2.5651    3.3206 C   0  0
    1.2944   -3.8212    2.5695 C   0  0  1  0  0  0
    2.6417   -3.5579    2.1075 O   0  0
    3.2497   -4.6501    1.3773 C   0  0  1  0  0  0
    4.5930   -4.2616    0.8891 N   0  0
    3.3403   -5.9005    2.2997 C   0  0  2  0  0  0
    3.9402   -6.9916    1.5840 O   0  0
    1.9058   -6.3084    2.7438 C   0  0  1  0  0  0
    1.9017   -7.5847    3.4172 O   0  0
    1.2321   -5.1033    3.4695 C   0  0  2  0  0  0
   -0.8076   -3.3199   -0.9403 C   0  0
   -0.7868   -2.2242   -0.3336 O   0  0
    0.2179   -3.6233   -1.9476 C   0  0
   -5.5607   -3.9317    3.2296 C   0  0
   -5.7234   -2.6390    3.9116 C   0  0
   -6.5580   -4.6584    3.0079 O   0  0
   -5.3897   -7.9558    4.4649 C   0  0
   -4.9585   -9.3117    4.0735 C   0  0
   -6.4242   -7.8137    5.1546 O   0  0
   -2.0772   -7.3333    6.3638 C   0  0
   -2.7106   -6.2928    7.1944 C   0  0
   -1.6176   -8.3650    6.9027 O   0  0
   -0.1354   -0.3364    2.7244 C   0  0
   -0.2715    0.0155    3.9205 O   0  0
   -0.5515    0.5684    1.6463 C   0  0
    1.6058   -7.9828    4.6920 C   0  0
    1.5773   -9.4227    4.9891 C   0  0
    1.3893   -7.1749    5.6235 O   0  0
    5.0171   -7.7435    1.9466 C   0  0
    5.7107   -7.6406    3.3739 C   0  0
    5.4494   -8.5727    1.1162 O   0  0
    4.5564   -3.0837   -0.4323 S   0  0
    4.0290   -1.6822    0.1409 O   0  0
    3.5236   -3.5894   -1.5515 O   0  0
    6.1549   -2.8680   -1.1729 C   0  0
    7.3345   -3.0816   -0.4278 C   0  0
    6.2583   -2.4653   -2.5234 C   0  0
    7.5205   -2.2906   -3.1238 C   0  0
    8.6915   -2.5101   -2.3746 C   0  0
    8.5969   -2.9053   -1.0281 C   0  0
   -2.7726   -3.2457    0.7363 H   0  0
   -3.7247   -4.4805   -0.3281 H   0  0
   -2.3764   -6.2518    0.8667 H   0  0
   -0.7671   -6.7413    2.6127 H   0  0
   -2.5733   -5.3451    4.7525 H   0  0
   -3.4170   -7.5970    2.8123 H   0  0
   -4.7844   -5.8328    1.6176 H   0  0
    1.6287   -2.1428    3.8719 H   0  0
   -0.1277   -2.8347    3.8460 H   0  0
    0.7051   -4.0008    1.6703 H   0  0
    2.6271   -4.8237    0.4996 H   0  0
    5.3695   -4.7058    1.3580 H   0  0
    3.9991   -5.7235    3.1498 H   0  0
    1.2532   -6.5986    1.9204 H   0  0
    1.7390   -4.9245    4.4178 H   0  0
    1.1472   -3.8981   -1.4486 H   0  0
   -0.1187   -4.4518   -2.5707 H   0  0
    0.3862   -2.7449   -2.5707 H   0  0
   -5.7040   -2.7925    4.9906 H   0  0
   -4.9103   -1.9721    3.6249 H   0  0
   -6.6763   -2.1943    3.6249 H   0  0
   -4.7698   -9.9052    4.9680 H   0  0
   -5.7418   -9.7853    3.4818 H   0  0
   -4.0455   -9.2459    3.4818 H   0  0
   -2.5657   -6.5309    8.2482 H   0  0
   -2.2570   -5.3263    6.9745 H   0  0
   -3.7774   -6.2519    6.9745 H   0  0
   -0.8826   -0.0168    0.7884 H   0  0
   -1.3707    1.1969    1.9954 H   0  0
    0.2898    1.1969    1.3545 H   0  0
    1.5744   -9.5709    6.0690 H   0  0
    0.6784   -9.8647    4.5593 H   0  0
    2.4580   -9.8998    4.5593 H   0  0
    5.8983   -8.6427    3.7598 H   0  0
    6.6552   -7.1044    3.2811 H   0  0
    5.0542   -7.1044    4.0591 H   0  0
    7.2703   -3.3844    0.6173 H   0  0
    5.3555   -2.2878   -3.1079 H   0  0
    7.5910   -1.9855   -4.1678 H   0  0
    9.6696   -2.3744   -2.8361 H   0  0
    9.5042   -3.0754   -0.4484 H   0  0
  1  2  1  0
  3  2  1  0
  3  4  1  0
  5  4  1  0
  5  6  1  0
  7  5  1  0
  7  8  1  0
  7  9  1  0
  9 10  1  0
  9 11  1  0
 11  3  1  0
 11 12  1  0
 13 14  1  0
 15 14  1  0
 15 16  1  0
 17 16  1  0
 17 18  1  0
 19 17  1  0
 19 20  1  0
 19 21  1  0
 21 22  1  0
 21 23  1  0
 23 15  1  0
 23  6  1  0
  1 24  1  0
 24 26  1  0
 24 25  2  0
 12 27  1  0
 27 28  1  0
 27 29  2  0
 10 30  1  0
 30 31  1  0
 30 32  2  0
  8 33  1  0
 33 34  1  0
 33 35  2  0
 13 36  1  0
 36 38  1  0
 36 37  2  0
 22 39  1  0
 39 40  1  0
 39 41  2  0
 20 42  1  0
 42 43  1  0
 42 44  2  0
 18 45  1  0
 45 48  1  0
 45 46  2  0
 45 47  2  0
 50 51  1  0
 51 52  2  0
 52 53  1  0
 49 53  2  0
 49 48  1  0
 48 50  2  0
  2 54  1  0
  2 55  1  0
  3 56  1  0
  5 57  1  0
  7 58  1  0
  9 59  1  0
 11 60  1  0
 14 61  1  0
 14 62  1  0
 15 63  1  0
 17 64  1  0
 18 65  1  0
 19 66  1  0
 21 67  1  0
 23 68  1  0
 26 69  1  0
 26 70  1  0
 26 71  1  0
 28 72  1  0
 28 73  1  0
 28 74  1  0
 31 75  1  0
 31 76  1  0
 31 77  1  0
 34 78  1  0
 34 79  1  0
 34 80  1  0
 38 81  1  0
 38 82  1  0
 38 83  1  0
 40 84  1  0
 40 85  1  0
 40 86  1  0
 43 87  1  0
 43 88  1  0
 43 89  1  0
 49 90  1  0
 50 91  1  0
 51 92  1  0
 52 93  1  0
 53 94  1  0
M  END
> <Name>
APB2007-9

$$$$
APB2007-13
  SciTegic12132405553D

 96 98  0  0  0  0            999 V2000
   -5.7864    7.0117    1.2365 O   0  0
   -7.0470    6.5786    1.7789 C   0  0
   -7.9621    6.2104    0.5841 C   0  0  1  0  0  0
   -7.5410    4.9177    0.0921 O   0  0
   -8.1802    4.4801   -1.1290 C   0  0  1  0  0  0
   -7.6940    3.1739   -1.5178 O   0  0
   -9.7174    4.4042   -0.9107 C   0  0  2  0  0  0
  -10.3870    4.0506   -2.1334 O   0  0
  -10.2301    5.7862   -0.4147 C   0  0  1  0  0  0
  -11.6583    5.7533   -0.2750 O   0  0
   -9.4867    6.1776    0.9038 C   0  0  1  0  0  0
   -9.7057    5.2024    1.9364 O   0  0
   -4.6183    2.8401    1.4307 O   0  0
   -5.3609    2.3991    0.2844 C   0  0
   -5.2135    3.3256   -0.9557 C   0  0  1  0  0  0
   -3.8994    3.1638   -1.5409 O   0  0
   -3.6616    3.9968   -2.7076 C   0  0  1  0  0  0
   -2.2970    3.8690   -3.1629 O   0  0
   -4.6278    3.5883   -3.8518 C   0  0  2  0  0  0
   -4.4224    4.4582   -4.9796 O   0  0
   -6.0882    3.7621   -3.3551 C   0  0  1  0  0  0
   -7.0105    3.2262   -4.3180 O   0  0
   -6.3332    3.0192   -2.0079 C   0  0  2  0  0  0
   -4.5377    6.5115    1.4552 C   0  0
   -4.3348    5.6054    2.2935 O   0  0
   -3.4148    7.0698    0.6905 C   0  0
  -10.8355    4.9803    2.6647 C   0  0
  -10.8582    3.8270    3.5721 C   0  0
  -11.8272    5.7429    2.5959 O   0  0
  -12.5296    6.8062   -0.3408 C   0  0
  -13.9845    6.4392   -0.1345 C   0  0
  -12.0559    7.9707   -0.5681 O   0  0
  -11.2863    3.0434   -2.3523 C   0  0
  -11.7383    2.0890   -1.3201 C   0  0
  -11.7498    2.9591   -3.5117 O   0  0
   -4.6496    2.2270    2.6575 C   0  0
   -5.3993    1.2430    2.8683 O   0  0
   -3.7956    2.7260    3.7467 C   0  0
   -8.0025    3.8718   -4.9972 C   0  0
   -8.8741    3.0847   -5.8755 C   0  0
   -8.1830    5.1085   -4.9001 O   0  0
   -4.2957    4.1583   -6.3067 C   0  0
   -4.4939    2.8143   -6.8800 C   0  0
   -4.0328    5.1173   -7.0663 O   0  0
   -1.4000    4.3899   -2.2667 C   0  0
    0.1113    4.0809   -0.3750 C   0  0
   -0.7504    3.5441   -1.3485 C   0  0
   -1.1256    5.7720   -2.2451 C   0  0
   -0.2678    6.3097   -1.2698 C   0  0
    0.3425    5.4768   -0.2986 C   0  0
    1.1435    6.0331    0.7326 C   0  0
    1.8846    5.3072    1.4389 O   0  0
    1.0842    7.3758    0.9808 O   0  0
    1.7736    8.0840    2.0110 C   0  0
   -6.8351    5.6703    2.3431 H   0  0
   -7.4713    7.4468    2.2830 H   0  0
   -7.8167    6.9488   -0.2043 H   0  0
   -7.8751    5.1798   -1.9071 H   0  0
   -9.9759    3.5997   -0.2222 H   0  0
  -10.0977    6.5745   -1.1557 H   0  0
   -9.8773    7.1042    1.3245 H   0  0
   -4.9136    1.4389    0.0275 H   0  0
   -6.4020    2.4474    0.6039 H   0  0
   -5.2487    4.3733   -0.6573 H   0  0
   -3.7829    5.0297   -2.3813 H   0  0
   -4.4268    2.5781   -4.2086 H   0  0
   -6.3032    4.8275   -3.2727 H   0  0
   -6.3367    1.9433   -2.1822 H   0  0
   -2.6580    7.4462    1.3787 H   0  0
   -2.9804    6.2919    0.0626 H   0  0
   -3.7729    7.8857    0.0626 H   0  0
  -10.8513    4.1767    4.6044 H   0  0
  -11.7599    3.2414    3.3928 H   0  0
   -9.9803    3.2063    3.3928 H   0  0
  -14.1979    6.3853    0.9330 H   0  0
  -14.6191    7.1969   -0.5941 H   0  0
  -14.1837    5.4711   -0.5941 H   0  0
  -11.5421    2.5034   -0.3312 H   0  0
  -12.8076    1.9105   -1.4336 H   0  0
  -11.1989    1.1486   -1.4336 H   0  0
   -3.3697    1.8825    4.2900 H   0  0
   -2.9919    3.3326    3.3295 H   0  0
   -4.3926    3.3326    4.4277 H   0  0
   -9.5468    2.4772   -5.2702 H   0  0
   -9.4582    3.7564   -6.5046 H   0  0
   -8.2652    2.4354   -6.5046 H   0  0
   -4.6011    2.0878   -6.0745 H   0  0
   -5.3941    2.8106   -7.4947 H   0  0
   -3.6332    2.5509   -7.4947 H   0  0
    0.6047    3.4086    0.3269 H   0  0
   -0.9155    2.4675   -1.3914 H   0  0
   -1.5795    6.4290   -2.9870 H   0  0
   -0.0742    7.3824   -1.2667 H   0  0
    2.2326    7.3719    2.6968 H   0  0
    2.5470    8.7104    1.5664 H   0  0
    1.0677    8.7104    2.5564 H   0  0
  1  2  1  0
  3  2  1  0
  3  4  1  0
  5  4  1  0
  5  6  1  0
  7  5  1  0
  7  8  1  0
  7  9  1  0
  9 10  1  0
  9 11  1  0
 11  3  1  0
 11 12  1  0
 13 14  1  0
 15 14  1  0
 15 16  1  0
 17 16  1  0
 17 18  1  0
 19 17  1  0
 19 20  1  0
 19 21  1  0
 21 22  1  0
 21 23  1  0
 23 15  1  0
 23  6  1  0
  1 24  1  0
 24 26  1  0
 24 25  2  0
 12 27  1  0
 27 28  1  0
 27 29  2  0
 10 30  1  0
 30 31  1  0
 30 32  2  0
  8 33  1  0
 33 34  1  0
 33 35  2  0
 13 36  1  0
 36 38  1  0
 36 37  2  0
 22 39  1  0
 39 40  1  0
 39 41  2  0
 20 42  1  0
 42 43  1  0
 42 44  2  0
 18 45  1  0
 46 47  1  0
 48 49  2  0
 49 50  1  0
 46 50  2  0
 47 45  2  0
 45 48  1  0
 50 51  1  0
 51 53  1  0
 51 52  2  0
 53 54  1  0
  2 55  1  0
  2 56  1  0
  3 57  1  0
  5 58  1  0
  7 59  1  0
  9 60  1  0
 11 61  1  0
 14 62  1  0
 14 63  1  0
 15 64  1  0
 17 65  1  0
 19 66  1  0
 21 67  1  0
 23 68  1  0
 26 69  1  0
 26 70  1  0
 26 71  1  0
 28 72  1  0
 28 73  1  0
 28 74  1  0
 31 75  1  0
 31 76  1  0
 31 77  1  0
 34 78  1  0
 34 79  1  0
 34 80  1  0
 38 81  1  0
 38 82  1  0
 38 83  1  0
 40 84  1  0
 40 85  1  0
 40 86  1  0
 43 87  1  0
 43 88  1  0
 43 89  1  0
 46 90  1  0
 47 91  1  0
 48 92  1  0
 49 93  1  0
 54 94  1  0
 54 95  1  0
 54 96  1  0
M  END
> <Name>
APB2007-13

$$$$
APB2007-14
  SciTegic12132405553D

 98100  0  0  0  0            999 V2000
   -6.1071   -0.8690    6.4865 O   0  0
   -7.4477   -1.2519    6.8270 C   0  0
   -8.2461   -1.3290    5.5036 C   0  0  1  0  0  0
   -7.8392   -2.5252    4.7995 O   0  0
   -8.3768   -2.6751    3.4667 C   0  0  1  0  0  0
   -7.9160   -3.9023    2.8614 O   0  0
   -9.9273   -2.6980    3.5363 C   0  0  2  0  0  0
  -10.4878   -2.7337    2.2133 O   0  0
  -10.4206   -1.4116    4.2513 C   0  0  1  0  0  0
  -11.8542   -1.4010    4.2835 O   0  0
   -9.7945   -1.3188    5.6767 C   0  0  1  0  0  0
  -10.1811   -2.4427    6.4893 O   0  0
   -5.1445   -5.1249    5.9215 O   0  0
   -5.8670   -5.2197    4.6867 C   0  0
   -5.5109   -4.0751    3.7007 C   0  0  1  0  0  0
   -4.1473   -4.2479    3.2345 O   0  0
   -3.7073   -3.2291    2.2968 C   0  0  1  0  0  0
   -2.3171   -3.4115    1.9380 O   0  0
   -4.5663   -3.3134    1.0076 C   0  0  2  0  0  0
   -4.1461   -2.2924    0.0865 O   0  0
   -6.0550   -3.0811    1.3744 C   0  0  1  0  0  0
   -6.8766   -3.3160    0.2210 O   0  0
   -6.5169   -4.0548    2.4997 C   0  0  2  0  0  0
   -4.9441   -1.5339    6.7178 C   0  0
   -4.9170   -2.5966    7.3767 O   0  0
   -3.7033   -0.9659    6.1785 C   0  0
  -11.3953   -2.7176    7.0489 C   0  0
  -11.5524   -4.0141    7.7199 C   0  0
  -12.3429   -1.8982    7.0232 O   0  0
  -12.6798   -0.3138    4.3836 C   0  0
  -14.1584   -0.6355    4.4576 C   0  0
  -12.1461    0.8448    4.4151 O   0  0
  -11.4201   -3.5846    1.6869 C   0  0
  -12.0120   -4.7246    2.4140 C   0  0
  -11.7876   -3.3475    0.5146 O   0  0
   -5.2683   -5.9982    6.9695 C   0  0
   -6.0341   -6.9903    6.9025 O   0  0
   -4.4907   -5.7733    8.1974 C   0  0
   -7.7384   -2.4572   -0.3931 C   0  0
   -8.5494   -2.9450   -1.5148 C   0  0
   -7.8671   -1.2680   -0.0207 O   0  0
   -3.8043   -2.3882   -1.2334 C   0  0
   -4.0277   -3.5836   -2.0693 C   0  0
   -3.3077   -1.3613   -1.7491 O   0  0
   -1.4601   -3.1048    2.9652 C   0  0
   -0.2513   -1.5414    4.3847 C   0  0
   -1.0355   -1.7728    3.2265 C   0  0
   -1.0260   -4.1633    3.7860 C   0  0
   -0.2404   -3.9052    4.9194 C   0  0
    0.1408   -2.5873    5.2565 C   0  0
    0.8923   -2.3179    6.4358 C   0  0
    1.3328   -1.1632    6.6571 O   0  0
    1.1396   -3.2981    7.3588 O   0  0
    1.8710   -3.1414    8.5816 C   0  0
   -1.3646   -0.7480    2.4216 N   0  0
   -1.5775   -0.9048    1.1806 O   0  0
   -1.4548    0.3537    2.8044 O   0  0
   -7.3772   -2.2550    7.2475 H   0  0
   -7.8510   -0.4364    7.4273 H   0  0
   -7.9801   -0.4691    4.8890 H   0  0
   -7.9663   -1.8575    2.8742 H   0  0
  -10.2823   -3.6077    4.0205 H   0  0
  -10.1815   -0.5109    3.6860 H   0  0
  -10.1707   -0.4573    6.2285 H   0  0
   -5.5289   -6.1551    4.2409 H   0  0
   -6.9126   -5.0972    4.9693 H   0  0
   -5.5120   -3.1101    4.2075 H   0  0
   -3.7749   -2.2770    2.8230 H   0  0
   -4.4182   -4.2599    0.4876 H   0  0
   -6.2032   -2.0396    1.6599 H   0  0
   -6.5798   -5.0667    2.0993 H   0  0
   -3.0527   -0.6679    7.0007 H   0  0
   -3.1973   -1.7130    5.5671 H   0  0
   -3.9383   -0.0946    5.5671 H   0  0
  -11.5348   -3.8686    8.8000 H   0  0
  -12.5030   -4.4610    7.4289 H   0  0
  -10.7360   -4.6750    7.4289 H   0  0
  -14.4639   -0.7020    5.5018 H   0  0
  -14.7267    0.1516    3.9621 H   0  0
  -14.3483   -1.5876    3.9621 H   0  0
  -11.9244   -4.5559    3.4873 H   0  0
  -13.0642   -4.8197    2.1458 H   0  0
  -11.4845   -5.6399    2.1458 H   0  0
   -4.2145   -6.7334    8.6335 H   0  0
   -3.5887   -5.2100    7.9582 H   0  0
   -5.0925   -5.2100    8.9105 H   0  0
   -8.5500   -4.0350   -1.5157 H   0  0
   -9.5714   -2.5812   -1.4094 H   0  0
   -8.1290   -2.5812   -2.4523 H   0  0
   -4.1896   -4.4501   -1.4282 H   0  0
   -4.9040   -3.4283   -2.6985 H   0  0
   -3.1544   -3.7553   -2.6985 H   0  0
    0.0615   -0.5225    4.6132 H   0  0
   -1.3001   -5.1898    3.5422 H   0  0
    0.0775   -4.7387    5.5458 H   0  0
    2.1140   -4.1232    8.9879 H   0  0
    2.7913   -2.5910    8.3865 H   0  0
    1.2637   -2.5910    9.3002 H   0  0
  1  2  1  0
  3  2  1  0
  3  4  1  0
  5  4  1  0
  5  6  1  0
  7  5  1  0
  7  8  1  0
  7  9  1  0
  9 10  1  0
  9 11  1  0
 11  3  1  0
 11 12  1  0
 13 14  1  0
 15 14  1  0
 15 16  1  0
 17 16  1  0
 17 18  1  0
 19 17  1  0
 19 20  1  0
 19 21  1  0
 21 22  1  0
 21 23  1  0
 23 15  1  0
 23  6  1  0
  1 24  1  0
 24 26  1  0
 24 25  2  0
 12 27  1  0
 27 28  1  0
 27 29  2  0
 10 30  1  0
 30 31  1  0
 30 32  2  0
  8 33  1  0
 33 34  1  0
 33 35  2  0
 13 36  1  0
 36 38  1  0
 36 37  2  0
 22 39  1  0
 39 40  1  0
 39 41  2  0
 20 42  1  0
 42 43  1  0
 42 44  2  0
 18 45  1  0
 46 47  1  0
 48 49  2  0
 49 50  1  0
 46 50  2  0
 47 45  2  0
 45 48  1  0
 50 51  1  0
 51 53  1  0
 51 52  2  0
 53 54  1  0
 47 55  1  0
 55 57  2  0
 55 56  1  0
  2 58  1  0
  2 59  1  0
  3 60  1  0
  5 61  1  0
  7 62  1  0
  9 63  1  0
 11 64  1  0
 14 65  1  0
 14 66  1  0
 15 67  1  0
 17 68  1  0
 19 69  1  0
 21 70  1  0
 23 71  1  0
 26 72  1  0
 26 73  1  0
 26 74  1  0
 28 75  1  0
 28 76  1  0
 28 77  1  0
 31 78  1  0
 31 79  1  0
 31 80  1  0
 34 81  1  0
 34 82  1  0
 34 83  1  0
 38 84  1  0
 38 85  1  0
 38 86  1  0
 40 87  1  0
 40 88  1  0
 40 89  1  0
 43 90  1  0
 43 91  1  0
 43 92  1  0
 46 93  1  0
 48 94  1  0
 49 95  1  0
 54 96  1  0
 54 97  1  0
 54 98  1  0
M  END
> <Name>
APB2007-14

$$$$
APB2007-15
  SciTegic12132405553D

103105  0  0  0  0            999 V2000
   -5.3442    6.4494    1.3311 O   0  0
   -6.5884    6.3362    2.0352 C   0  0
   -7.7166    6.0922    1.0058 C   0  0  1  0  0  0
   -7.5369    4.7897    0.3976 O   0  0
   -8.4262    4.5081   -0.7101 C   0  0  1  0  0  0
   -8.2201    3.1703   -1.2264 O   0  0
   -9.9143    4.6190   -0.2598 C   0  0  2  0  0  0
  -10.7668    4.5830   -1.4187 O   0  0
  -10.1628    5.9708    0.4688 C   0  0  1  0  0  0
  -11.5231    6.0801    0.9293 O   0  0
   -9.1398    6.1622    1.6307 C   0  0  1  0  0  0
   -9.2133    5.1313    2.6329 O   0  0
   -4.7291    1.8889    1.0215 O   0  0
   -5.8187    1.7624    0.0987 C   0  0
   -5.7048    2.7981   -1.0496 C   0  0  1  0  0  0
   -4.5437    2.4426   -1.8331 O   0  0
   -4.2918    3.3105   -2.9622 C   0  0  1  0  0  0
   -3.0577    2.9427   -3.6157 O   0  0
   -5.4630    3.1931   -3.9710 C   0  0  2  0  0  0
   -5.2223    4.0578   -5.0974 O   0  0
   -6.7790    3.6153   -3.2596 C   0  0  1  0  0  0
   -7.8807    3.3512   -4.1422 O   0  0
   -6.9966    2.8218   -1.9327 C   0  0  2  0  0  0
   -4.2406    5.6588    1.4484 C   0  0
   -4.1885    4.7216    2.2778 O   0  0
   -3.1035    5.9190    0.5586 C   0  0
  -10.1711    4.8684    3.5644 C   0  0
   -9.9564    3.7149    4.4485 C   0  0
  -11.1867    5.5868    3.6963 O   0  0
  -12.2129    7.2365    1.1954 C   0  0
  -13.6086    7.0691    1.7697 C   0  0
  -11.6318    8.3422    0.9315 O   0  0
  -11.8188    3.7645   -1.7062 C   0  0
  -12.2244    2.6206   -0.8731 C   0  0
  -12.4546    4.0285   -2.7511 O   0  0
   -4.5150    1.0862    2.1048 C   0  0
   -5.2442    0.0923    2.3324 O   0  0
   -3.4031    1.3997    3.0115 C   0  0
   -8.7925    4.2311   -4.6467 C   0  0
   -9.8308    3.7308   -5.5553 C   0  0
   -8.7689    5.4511   -4.3605 O   0  0
   -5.1888    3.7772   -6.4337 C   0  0
   -5.5556    2.4756   -7.0205 C   0  0
   -4.8399    4.7142   -7.1877 O   0  0
   -1.9474    3.1604   -2.8383 C   0  0
   -0.2651    4.5988   -1.8276 C   0  0
   -1.3780    4.4512   -2.6911 C   0  0
   -1.3723    2.0510   -2.1916 C   0  0
   -0.2486    2.2154   -1.3675 C   0  0
    0.3162    3.4949   -1.1570 C   0  0
    1.4308    3.6718   -0.2921 C   0  0
    2.1219    2.6889    0.0694 O   0  0
    1.7525    4.9195    0.1722 O   0  0
    2.8218    5.2451    1.0647 C   0  0
   -1.9735    5.4596   -3.4067 N   0  0
   -1.7063    6.7919   -3.4958 C   0  0
   -2.5737    7.5947   -4.3738 C   0  0
   -0.7770    7.3686   -2.8861 O   0  0
   -6.4953    5.4454    2.6564 H   0  0
   -6.7542    7.3088    2.4984 H   0  0
   -7.6293    6.8385    0.2161 H   0  0
   -8.1332    5.2138   -1.4875 H   0  0
  -10.1879    3.7671    0.3627 H   0  0
  -10.0928    6.7995   -0.2358 H   0  0
   -9.3701    7.0728    2.1837 H   0  0
   -5.7056    0.7693   -0.3362 H   0  0
   -6.7088    2.0051    0.6790 H   0  0
   -5.5251    3.8035   -0.6687 H   0  0
   -4.1514    4.3161   -2.5658 H   0  0
   -5.5313    2.1911   -4.3947 H   0  0
   -6.7767    4.6879   -3.0661 H   0  0
   -7.2597    1.7920   -2.1743 H   0  0
   -2.2143    6.1224    1.1554 H   0  0
   -2.9271    5.0464   -0.0703 H   0  0
   -3.3241    6.7815   -0.0703 H   0  0
  -10.0165    4.0377    5.4879 H   0  0
  -10.7217    2.9629    4.2567 H   0  0
   -8.9718    3.2885    4.2567 H   0  0
  -13.5567    7.0753    2.8584 H   0  0
  -14.2415    7.8895    1.4314 H   0  0
  -14.0295    6.1222    1.4314 H   0  0
  -12.1302    2.8864    0.1798 H   0  0
  -13.2606    2.3617   -1.0911 H   0  0
  -11.5830    1.7667   -1.0911 H   0  0
   -3.7387    1.3051    4.0443 H   0  0
   -2.5812    0.7068    2.8317 H   0  0
   -3.0642    2.4199    2.8317 H   0  0
  -10.6610    3.3307   -4.9732 H   0  0
  -10.1876    4.5468   -6.1837 H   0  0
   -9.4149    2.9432   -6.1837 H   0  0
   -5.7570    1.7611   -6.2224 H   0  0
   -6.4472    2.5931   -7.6365 H   0  0
   -4.7340    2.1102   -7.6365 H   0  0
    0.1570    5.5920   -1.6745 H   0  0
   -1.8000    1.0580   -2.3299 H   0  0
    0.1897    1.3410   -0.8864 H   0  0
    2.4801    5.1411    2.0945 H   0  0
    3.6594    4.5699    0.8898 H   0  0
    3.1409    6.2726    0.8898 H   0  0
   -2.7555    5.1660   -3.9746 H   0  0
   -3.2375    8.2091   -3.7655 H   0  0
   -1.9584    8.2379   -5.0030 H   0  0
   -3.1674    6.9315   -5.0030 H   0  0
  1  2  1  0
  3  2  1  0
  3  4  1  0
  5  4  1  0
  5  6  1  0
  7  5  1  0
  7  8  1  0
  7  9  1  0
  9 10  1  0
  9 11  1  0
 11  3  1  0
 11 12  1  0
 13 14  1  0
 15 14  1  0
 15 16  1  0
 17 16  1  0
 17 18  1  0
 19 17  1  0
 19 20  1  0
 19 21  1  0
 21 22  1  0
 21 23  1  0
 23 15  1  0
 23  6  1  0
  1 24  1  0
 24 26  1  0
 24 25  2  0
 12 27  1  0
 27 28  1  0
 27 29  2  0
 10 30  1  0
 30 31  1  0
 30 32  2  0
  8 33  1  0
 33 34  1  0
 33 35  2  0
 13 36  1  0
 36 38  1  0
 36 37  2  0
 22 39  1  0
 39 40  1  0
 39 41  2  0
 20 42  1  0
 42 43  1  0
 42 44  2  0
 18 45  1  0
 46 47  1  0
 48 49  2  0
 49 50  1  0
 46 50  2  0
 47 45  2  0
 45 48  1  0
 50 51  1  0
 51 53  1  0
 51 52  2  0
 53 54  1  0
 47 55  1  0
 55 56  1  0
 56 57  1  0
 56 58  2  0
  2 59  1  0
  2 60  1  0
  3 61  1  0
  5 62  1  0
  7 63  1  0
  9 64  1  0
 11 65  1  0
 14 66  1  0
 14 67  1  0
 15 68  1  0
 17 69  1  0
 19 70  1  0
 21 71  1  0
 23 72  1  0
 26 73  1  0
 26 74  1  0
 26 75  1  0
 28 76  1  0
 28 77  1  0
 28 78  1  0
 31 79  1  0
 31 80  1  0
 31 81  1  0
 34 82  1  0
 34 83  1  0
 34 84  1  0
 38 85  1  0
 38 86  1  0
 38 87  1  0
 40 88  1  0
 40 89  1  0
 40 90  1  0
 43 91  1  0
 43 92  1  0
 43 93  1  0
 46 94  1  0
 48 95  1  0
 49 96  1  0
 54 97  1  0
 54 98  1  0
 54 99  1  0
 55100  1  0
 57101  1  0
 57102  1  0
 57103  1  0
M  END
> <Name>
APB2007-15

$$$$
APB2007-19
  SciTegic12132405553D

132140  0  0  0  0            999 V2000
    1.5633   -8.2880   -1.9973 C   0  0
    1.6249   -7.1753   -3.0792 C   0  0  1  0  0  0
    2.8198   -7.3275   -3.8678 O   0  0
    3.0072   -6.2731   -4.8472 C   0  0  1  0  0  0
    4.3262   -6.3615   -5.4293 O   0  0
    1.9130   -6.4159   -5.9314 C   0  0  2  0  0  0
    2.1558   -5.4194   -6.9421 O   0  0
    0.5212   -6.2366   -5.2485 C   0  0  1  0  0  0
   -0.5014   -6.4693   -6.2368 O   0  0
    0.3369   -7.1444   -3.9810 C   0  0  2  0  0  0
    1.4536   -2.0020    0.2709 Br  0  0
    1.1674   -3.8342   -0.2671 C   0  0
   -0.1134   -3.9776   -1.1268 C   0  0  1  0  0  0
   -0.1313   -5.3128   -1.6582 O   0  0
   -1.1380   -5.5881   -2.6513 C   0  0  1  0  0  0
   -0.9006   -6.8939   -3.2383 O   0  0
   -2.5284   -5.4588   -1.9601 C   0  0  2  0  0  0
   -3.5580   -5.7654   -2.9111 O   0  0
   -2.6288   -4.0085   -1.3641 C   0  0  1  0  0  0
   -3.9189   -3.6838   -0.8141 O   0  0
   -1.4491   -3.7720   -0.3597 C   0  0  1  0  0  0
   -1.4498   -4.6986    0.7442 O   0  0
    5.2893   -6.0280   -4.5132 C   0  0
    6.6043   -4.3423   -3.3359 C   0  0
    5.6735   -4.6842   -4.3336 C   0  0
    5.8747   -7.0279   -3.7165 C   0  0
    6.8068   -6.6846   -2.7228 C   0  0
    7.1750   -5.3338   -2.4979 C   0  0
    8.0765   -4.9916   -1.4521 C   0  0
    8.3994   -3.7969   -1.2417 O   0  0
    8.5964   -5.9734   -0.6535 O   0  0
    9.5212   -5.8094    0.4236 C   0  0
   -4.2558   -2.4267   -0.3790 C   0  0
   -4.1096   -2.2169    0.8458 O   0  0
   -4.7884   -1.4080   -1.2239 C   0  0
   -5.0091   -0.0932   -0.7339 C   0  0
   -5.5455    0.9133   -1.5585 C   0  0
   -5.8744    0.6279   -2.8937 C   0  0
   -5.6602   -0.6638   -3.4016 C   0  0
   -5.1145   -1.6670   -2.5778 C   0  0
   -4.8830   -5.9138   -2.6202 C   0  0
   -5.6358   -5.0232   -3.0730 O   0  0
   -5.4215   -7.0317   -1.9266 C   0  0
   -6.7467   -7.0023   -1.4203 C   0  0
   -4.6611   -8.2117   -1.7357 C   0  0
   -5.2121   -9.3274   -1.0775 C   0  0
   -6.5292   -9.2817   -0.5894 C   0  0
   -7.2952   -8.1164   -0.7591 C   0  0
   -1.8517   -6.3229   -6.0932 C   0  0
   -2.5105   -5.0615   -6.1113 C   0  0
   -2.4966   -7.3947   -6.0283 O   0  0
   -1.7779   -3.8596   -6.2712 C   0  0
   -2.4129   -2.6069   -6.2545 C   0  0
   -3.8036   -2.5304   -6.0862 C   0  0
   -4.5579   -3.7065   -5.9394 C   0  0
   -3.9177   -4.9597   -5.9622 C   0  0
    2.5629   -8.8206    0.2370 C   0  0
    2.4912   -8.0657   -0.9129 O   0  0
    0.7258   -7.3911  -11.1716 C   0  0
    1.8493   -8.2348  -11.2239 C   0  0
    2.8709   -8.1037  -10.2672 C   0  0
    2.7621   -7.1400   -9.2480 C   0  0
    1.6341   -6.2871   -9.1741 C   0  0
    0.6239   -6.4204  -10.1593 C   0  0
    1.5223   -5.3130   -8.1479 C   0  0
    0.8904   -4.2519   -8.3517 O   0  0
   -2.3912   -4.8217    1.7160 C   0  0
   -3.1197   -5.8603    1.5549 O   0  0
   -2.4361   -3.8147    2.7825 C   0  0
   -1.3900   -2.8849    2.9938 C   0  0
   -1.5011   -1.8920    3.9840 C   0  0
   -2.6566   -1.8226    4.7820 C   0  0
   -3.6943   -2.7535    4.5960 C   0  0
   -3.5775   -3.7518    3.6126 C   0  0
    1.7535   -9.7725    0.3569 O   0  0
    3.4965   -8.5572    1.2863 C   0  0
    5.3486   -7.2486    2.2456 C   0  0
    4.4356   -7.4980    1.2001 C   0  0
    3.5133   -9.3552    2.4628 C   0  0
    4.4231   -9.1074    3.5066 C   0  0
    5.3415   -8.0512    3.3996 C   0  0
    0.5783   -8.2373   -1.5332 H   0  0
    1.8991   -9.2145   -2.4631 H   0  0
    1.7466   -6.2038   -2.6000 H   0  0
    2.9793   -5.3121   -4.3337 H   0  0
    1.9523   -7.3608   -6.4734 H   0  0
    0.3764   -5.2035   -4.9324 H   0  0
    0.1257   -8.1585   -4.3203 H   0  0
    1.9481   -4.1475   -0.9603 H   0  0
    0.9326   -4.4478    0.6027 H   0  0
   -0.0595   -3.2491   -1.9358 H   0  0
   -1.0263   -4.8999   -3.4892 H   0  0
   -2.7200   -6.2057   -1.1897 H   0  0
   -2.6206   -3.2672   -2.1631 H   0  0
   -1.5598   -2.7974    0.1157 H   0  0
    6.8865   -3.2969   -3.2109 H   0  0
    5.2492   -3.9065   -4.9685 H   0  0
    5.6050   -8.0728   -3.8698 H   0  0
    7.2500   -7.4763   -2.1188 H   0  0
    9.8331   -6.7886    0.7869 H   0  0
   10.3932   -5.2573    0.0730 H   0  0
    9.0427   -5.2573    1.2325 H   0  0
   -4.7610    0.1491    0.2995 H   0  0
   -5.7065    1.9159   -1.1623 H   0  0
   -6.2938    1.4050   -3.5327 H   0  0
   -5.9180   -0.8880   -4.4367 H   0  0
   -4.9418   -2.6592   -2.9947 H   0  0
   -7.3553   -6.1063   -1.5418 H   0  0
   -3.6355   -8.2620   -2.1012 H   0  0
   -4.6163  -10.2305   -0.9452 H   0  0
   -6.9550  -10.1469   -0.0812 H   0  0
   -8.3155   -8.0767   -0.3777 H   0  0
   -0.6976   -3.8998   -6.4107 H   0  0
   -1.8271   -1.6952   -6.3720 H   0  0
   -4.2973   -1.5588   -6.0695 H   0  0
   -5.6383   -3.6469   -5.8079 H   0  0
   -4.5195   -5.8630   -5.8632 H   0  0
   -0.0653   -7.4893  -11.9150 H   0  0
    1.9282   -8.9902  -12.0058 H   0  0
    3.7477   -8.7495  -10.3155 H   0  0
    3.5588   -7.0533   -8.5091 H   0  0
   -0.2467   -5.7649  -10.1380 H   0  0
   -0.4867   -2.9342    2.3858 H   0  0
   -0.6921   -1.1768    4.1330 H   0  0
   -2.7479   -1.0482    5.5436 H   0  0
   -4.5901   -2.7013    5.2148 H   0  0
   -4.3776   -4.4822    3.4929 H   0  0
    6.0640   -6.4306    2.1612 H   0  0
    4.4560   -6.8638    0.3139 H   0  0
    2.8087  -10.1802    2.5675 H   0  0
    4.4165   -9.7339    4.3986 H   0  0
    6.0456   -7.8553    4.2083 H   0  0
  2  1  1  0
  2  3  1  0
  4  3  1  0
  4  5  1  0
  6  4  1  0
  6  7  1  0
  6  8  1  0
  8  9  1  0
  8 10  1  0
 10  2  1  0
 11 12  1  0
 13 12  1  0
 13 14  1  0
 15 14  1  0
 15 16  1  0
 17 15  1  0
 17 18  1  0
 17 19  1  0
 19 20  1  0
 19 21  1  0
 21 13  1  0
 21 22  1  0
 10 16  1  0
  5 23  1  0
 24 25  1  0
 26 27  2  0
 27 28  1  0
 24 28  2  0
 25 23  2  0
 23 26  1  0
 28 29  1  0
 29 31  1  0
 29 30  2  0
 31 32  1  0
 20 33  1  0
 33 34  2  0
 33 35  1  0
 36 37  2  0
 37 38  1  0
 38 39  2  0
 39 40  1  0
 35 36  1  0
 35 40  2  0
 18 41  1  0
 41 42  2  0
 41 43  1  0
 45 46  1  0
 46 47  2  0
 47 48  1  0
 44 48  2  0
 44 43  1  0
 43 45  2  0
  9 49  1  0
 49 50  1  0
 49 51  2  0
 52 53  1  0
 53 54  2  0
 54 55  1  0
 55 56  2  0
 56 50  1  0
 52 50  2  0
 58 57  1  0
 59 60  1  0
 60 61  2  0
 61 62  1  0
 62 63  2  0
 63 64  1  0
 59 64  2  0
  7 65  1  0
 65 63  1  0
 65 66  2  0
 22 67  1  0
 67 68  2  0
 67 69  1  0
 70 71  1  0
 71 72  2  0
 72 73  1  0
 73 74  2  0
 74 69  1  0
 70 69  2  0
  1 58  1  0
 57 76  1  0
 57 75  2  0
 77 78  1  0
 79 80  2  0
 80 81  1  0
 77 81  2  0
 78 76  2  0
 76 79  1  0
  1 82  1  0
  1 83  1  0
  2 84  1  0
  4 85  1  0
  6 86  1  0
  8 87  1  0
 10 88  1  0
 12 89  1  0
 12 90  1  0
 13 91  1  0
 15 92  1  0
 17 93  1  0
 19 94  1  0
 21 95  1  0
 24 96  1  0
 25 97  1  0
 26 98  1  0
 27 99  1  0
 32100  1  0
 32101  1  0
 32102  1  0
 36103  1  0
 37104  1  0
 38105  1  0
 39106  1  0
 40107  1  0
 44108  1  0
 45109  1  0
 46110  1  0
 47111  1  0
 48112  1  0
 52113  1  0
 53114  1  0
 54115  1  0
 55116  1  0
 56117  1  0
 59118  1  0
 60119  1  0
 61120  1  0
 62121  1  0
 64122  1  0
 70123  1  0
 71124  1  0
 72125  1  0
 73126  1  0
 74127  1  0
 77128  1  0
 78129  1  0
 79130  1  0
 80131  1  0
 81132  1  0
M  END
> <Name>
APB2007-19

$$$$
APB2007-20a
  SciTegic12132405553D

134142  0  0  0  0            999 V2000
    2.6054   -3.3778   -1.7314 C   0  0
    2.4393   -4.8695   -2.1372 C   0  0  1  0  0  0
    3.7034   -5.3876   -2.5971 O   0  0
    3.6206   -6.7455   -3.0893 C   0  0  1  0  0  0
    4.8541   -7.1096   -3.7421 O   0  0
    3.3376   -7.6779   -1.8881 C   0  0  2  0  0  0
    3.3683   -9.0358   -2.3690 O   0  0
    1.9518   -7.2942   -1.2841 C   0  0  1  0  0  0
    1.7432   -8.1023   -0.1127 O   0  0
    1.8273   -5.7572   -0.9870 C   0  0  2  0  0  0
    0.2855   -4.7488   -5.3620 N   0  0
   -0.9314   -4.2140   -4.9508 C   0  0
   -1.4283   -4.9602   -3.6822 C   0  0  1  0  0  0
   -0.4586   -4.7600   -2.6386 O   0  0
   -0.6443   -5.5265   -1.4341 C   0  0  1  0  0  0
    0.4934   -5.3339   -0.5543 O   0  0
   -1.9957   -5.0858   -0.7941 C   0  0  2  0  0  0
   -2.1897   -5.7916    0.4407 O   0  0
   -3.1231   -5.3499   -1.8498 C   0  0  1  0  0  0
   -4.4507   -5.1276   -1.3434 O   0  0
   -2.8108   -4.4861   -3.1489 C   0  0  1  0  0  0
   -2.6637   -3.0196   -2.9337 O   0  0
    4.9968   -6.4395   -4.9291 C   0  0
    4.4987   -6.2204   -7.3077 C   0  0
    4.4310   -6.9567   -6.1109 C   0  0
    5.6740   -5.2076   -4.9661 C   0  0
    5.7411   -4.4743   -6.1629 C   0  0
    5.1415   -4.9566   -7.3533 C   0  0
    5.1846   -4.1845   -8.5469 C   0  0
    4.6512   -4.6005   -9.6034 O   0  0
    5.8045   -2.9641   -8.5514 O   0  0
    5.9489   -2.0627   -9.6531 C   0  0
   -5.5883   -5.3962   -2.0585 C   0  0
   -6.0635   -4.4383   -2.7095 O   0  0
   -6.2329   -6.6680   -2.0669 C   0  0
   -5.7916   -7.7239   -1.2325 C   0  0
   -6.4407   -8.9736   -1.2310 C   0  0
   -7.5275   -9.2037   -2.0899 C   0  0
   -7.9709   -8.1802   -2.9426 C   0  0
   -7.3325   -6.9256   -2.9273 C   0  0
   -3.1797   -5.5519    1.3493 C   0  0
   -4.0477   -6.4473    1.4610 O   0  0
   -3.2003   -4.4209    2.2095 C   0  0
   -4.3732   -4.0880    2.9323 C   0  0
   -2.0566   -3.6036    2.3813 C   0  0
   -2.0823   -2.4979    3.2536 C   0  0
   -3.2545   -2.1914    3.9662 C   0  0
   -4.4013   -2.9857    3.8043 C   0  0
    0.6333   -8.1524    0.6818 C   0  0
   -0.5583   -8.8522    0.3304 C   0  0
    0.7599   -7.6120    1.8055 O   0  0
   -0.6668   -9.5496   -0.8972 C   0  0
   -1.8477  -10.2227   -1.2583 C   0  0
   -2.9531  -10.2065   -0.3963 C   0  0
   -2.8739   -9.5251    0.8274 C   0  0
   -1.6861   -8.8638    1.1890 C   0  0
    2.7441   -1.1247   -2.8197 C   0  0
    2.7161   -2.4999   -2.8716 O   0  0
    5.0850  -11.7513    1.2965 C   0  0
    6.3978  -11.2911    1.1000 C   0  0
    6.6976  -10.4767   -0.0057 C   0  0
    5.6816  -10.1089   -0.9072 C   0  0
    4.3510  -10.5512   -0.7168 C   0  0
    4.0721  -11.3894    0.3896 C   0  0
    3.3241  -10.1729   -1.6191 C   0  0
    2.3528  -10.9349   -1.8274 O   0  0
   -3.7345   -2.1316   -2.5766 C   0  0
   -3.7569   -1.5578   -1.4381 O   0  0
   -4.8097   -1.7601   -3.4862 C   0  0
   -4.6740   -2.0212   -4.8707 C   0  0
   -5.7134   -1.7169   -5.7693 C   0  0
   -6.9043   -1.1396   -5.2980 C   0  0
   -7.0531   -0.8624   -3.9291 C   0  0
   -6.0114   -1.1625   -3.0326 C   0  0
    2.6638   -0.5768   -1.6924 O   0  0
    2.8447   -0.3184   -3.9932 C   0  0
    3.0528   -0.0836   -6.4353 C   0  0
    2.9591   -0.8927   -5.2845 C   0  0
    2.8320    1.0985   -3.9033 C   0  0
    2.9254    1.9086   -5.0484 C   0  0
    3.0343    1.3169   -6.3165 C   0  0
    0.9197   -4.3467   -6.2512 N   0  0
    1.5591   -3.9524   -7.1375 N   0  0
    1.6856   -3.0701   -1.2340 H   0  0
    3.5613   -3.2837   -1.2162 H   0  0
    1.7887   -4.9379   -3.0090 H   0  0
    2.8533   -6.7913   -3.8621 H   0  0
    4.1059   -7.6478   -1.1154 H   0  0
    1.1354   -7.5620   -1.9548 H   0  0
    2.3705   -5.5516   -0.0646 H   0  0
   -0.7051   -3.1825   -4.6812 H   0  0
   -1.6190   -4.4250   -5.7699 H   0  0
   -1.4912   -6.0237   -3.9129 H   0  0
   -0.6231   -6.5896   -1.6737 H   0  0
   -2.0178   -4.0500   -0.4556 H   0  0
   -3.2116   -6.4163   -2.0575 H   0  0
   -3.6566   -4.5754   -3.8306 H   0  0
    4.0479   -6.6338   -8.2099 H   0  0
    3.9394   -7.9295   -6.0993 H   0  0
    6.1483   -4.8199   -4.0644 H   0  0
    6.2653   -3.5186   -6.1681 H   0  0
    6.0696   -2.6319  -10.5748 H   0  0
    5.0610   -1.4347   -9.7275 H   0  0
    6.8259   -1.4347   -9.4963 H   0  0
   -4.9339   -7.5713   -0.5774 H   0  0
   -6.1009   -9.7652   -0.5631 H   0  0
   -8.0252  -10.1734   -2.0948 H   0  0
   -8.8095   -8.3593   -3.6154 H   0  0
   -7.6951   -6.1416   -3.5920 H   0  0
   -5.2725   -4.6925    2.8150 H   0  0
   -1.1418   -3.8292    1.8333 H   0  0
   -1.1939   -1.8786    3.3774 H   0  0
   -3.2743   -1.3381    4.6441 H   0  0
   -5.3115   -2.7471    4.3545 H   0  0
    0.1809   -9.5688   -1.5822 H   0  0
   -1.9062  -10.7571   -2.2065 H   0  0
   -3.8716  -10.7223   -0.6766 H   0  0
   -3.7343   -9.5095    1.4964 H   0  0
   -1.6387   -8.3520    2.1502 H   0  0
    4.8530  -12.3876    2.1506 H   0  0
    7.1828  -11.5658    1.8045 H   0  0
    7.7188  -10.1300   -0.1641 H   0  0
    5.9274   -9.4762   -1.7600 H   0  0
    3.0599  -11.7625    0.5459 H   0  0
   -3.7537   -2.4641   -5.2514 H   0  0
   -5.5959   -1.9286   -6.8320 H   0  0
   -7.7112   -0.9074   -5.9930 H   0  0
   -7.9768   -0.4144   -3.5625 H   0  0
   -6.1367   -0.9295   -1.9752 H   0  0
    3.1397   -0.5423   -7.4203 H   0  0
    2.9755   -1.9770   -5.3947 H   0  0
    2.7481    1.5777   -2.9278 H   0  0
    2.9134    2.9944   -4.9532 H   0  0
    3.1043    1.9429   -7.2060 H   0  0
  2  1  1  0
  2  3  1  0
  4  3  1  0
  4  5  1  0
  6  4  1  0
  6  7  1  0
  6  8  1  0
  8  9  1  0
  8 10  1  0
 10  2  1  0
 11 12  1  0
 13 12  1  0
 13 14  1  0
 15 14  1  0
 15 16  1  0
 17 15  1  0
 17 18  1  0
 17 19  1  0
 19 20  1  0
 19 21  1  0
 21 13  1  0
 21 22  1  0
 10 16  1  0
  5 23  1  0
 24 25  1  0
 26 27  2  0
 27 28  1  0
 24 28  2  0
 25 23  2  0
 23 26  1  0
 28 29  1  0
 29 31  1  0
 29 30  2  0
 31 32  1  0
 20 33  1  0
 33 34  2  0
 33 35  1  0
 36 37  2  0
 37 38  1  0
 38 39  2  0
 39 40  1  0
 35 36  1  0
 35 40  2  0
 18 41  1  0
 41 42  2  0
 41 43  1  0
 45 46  1  0
 46 47  2  0
 47 48  1  0
 44 48  2  0
 44 43  1  0
 43 45  2  0
  9 49  1  0
 49 50  1  0
 49 51  2  0
 52 53  1  0
 53 54  2  0
 54 55  1  0
 55 56  2  0
 56 50  1  0
 52 50  2  0
 58 57  1  0
 59 60  1  0
 60 61  2  0
 61 62  1  0
 62 63  2  0
 63 64  1  0
 59 64  2  0
  7 65  1  0
 65 63  1  0
 65 66  2  0
 22 67  1  0
 67 68  2  0
 67 69  1  0
 70 71  1  0
 71 72  2  0
 72 73  1  0
 73 74  2  0
 74 69  1  0
 70 69  2  0
  1 58  1  0
 57 76  1  0
 57 75  2  0
 77 78  1  0
 79 80  2  0
 80 81  1  0
 77 81  2  0
 78 76  2  0
 76 79  1  0
 82 83  2  0
 11 82  2  0
  1 84  1  0
  1 85  1  0
  2 86  1  0
  4 87  1  0
  6 88  1  0
  8 89  1  0
 10 90  1  0
 12 91  1  0
 12 92  1  0
 13 93  1  0
 15 94  1  0
 17 95  1  0
 19 96  1  0
 21 97  1  0
 24 98  1  0
 25 99  1  0
 26100  1  0
 27101  1  0
 32102  1  0
 32103  1  0
 32104  1  0
 36105  1  0
 37106  1  0
 38107  1  0
 39108  1  0
 40109  1  0
 44110  1  0
 45111  1  0
 46112  1  0
 47113  1  0
 48114  1  0
 52115  1  0
 53116  1  0
 54117  1  0
 55118  1  0
 56119  1  0
 59120  1  0
 60121  1  0
 61122  1  0
 62123  1  0
 64124  1  0
 70125  1  0
 71126  1  0
 72127  1  0
 73128  1  0
 74129  1  0
 77130  1  0
 78131  1  0
 79132  1  0
 80133  1  0
 81134  1  0
M  END
> <Name>
APB2007-20a

$$$$
APB2007-20b
  SciTegic12132405553D

130138  0  0  0  0            999 V2000
    1.8146   -8.1243   -1.7900 C   0  0
    1.8762   -7.0126   -2.8729 C   0  0  1  0  0  0
    3.1451   -7.0624   -3.5513 O   0  0
    3.3275   -5.9978   -4.5205 C   0  0  1  0  0  0
    4.6957   -5.9729   -4.9829 O   0  0
    2.3503   -6.2369   -5.6957 C   0  0  2  0  0  0
    2.5954   -5.2251   -6.6906 O   0  0
    0.8931   -6.1773   -5.1402 C   0  0  1  0  0  0
   -0.0138   -6.4995   -6.2127 O   0  0
    0.6756   -7.0951   -3.8853 C   0  0  2  0  0  0
    0.8851   -3.7180   -0.1447 C   0  0
   -0.2972   -3.9734   -1.1127 C   0  0
   -0.1529   -5.3062   -1.6307 O   0  0
   -1.0400   -5.6695   -2.7062 C   0  0  1  0  0  0
   -0.6400   -6.9511   -3.2573 O   0  0
   -2.4922   -5.6596   -2.1418 C   0  0  2  0  0  0
   -3.4031   -6.0561   -3.1771 O   0  0
   -2.7696   -4.2222   -1.5711 C   0  0  1  0  0  0
   -4.1265   -4.0093   -1.1404 O   0  0
   -1.7085   -3.8826   -0.4687 C   0  0  1  0  0  0
   -1.7276   -4.8036    0.6397 O   0  0
    5.5413   -5.5555   -3.9886 C   0  0
    6.5966   -3.7600   -2.7160 C   0  0
    5.7910   -4.1831   -3.7886 C   0  0
    6.1374   -6.4994   -3.1336 C   0  0
    6.9445   -6.0748   -2.0648 C   0  0
    7.1738   -4.6967   -1.8213 C   0  0
    7.9459   -4.2757   -0.7033 C   0  0
    8.1450   -3.0572   -0.4768 O   0  0
    8.4753   -5.2073    0.1476 O   0  0
    9.2832   -4.9618    1.3006 C   0  0
   -4.6076   -2.7852   -0.7489 C   0  0
   -4.5894   -2.5610    0.4819 O   0  0
   -5.1486   -1.8181   -1.6474 C   0  0
   -5.5243   -0.5263   -1.1916 C   0  0
   -6.0698    0.4284   -2.0701 C   0  0
   -6.2530    0.1129   -3.4263 C   0  0
   -5.8842   -1.1564   -3.9008 C   0  0
   -5.3296   -2.1070   -3.0223 C   0  0
   -4.7309   -6.3179   -3.0030 C   0  0
   -5.5143   -5.4967   -3.5291 O   0  0
   -5.2309   -7.4768   -2.3489 C   0  0
   -6.5934   -7.5612   -1.9620 C   0  0
   -4.3918   -8.5863   -2.0802 C   0  0
   -4.9011   -9.7441   -1.4625 C   0  0
   -6.2554   -9.8116   -1.0932 C   0  0
   -7.1007   -8.7173   -1.3412 C   0  0
   -1.3791   -6.4702   -6.1904 C   0  0
   -2.1397   -5.2705   -6.2789 C   0  0
   -1.9327   -7.5936   -6.1724 O   0  0
   -1.5019   -4.0101   -6.3850 C   0  0
   -2.2412   -2.8170   -6.4366 C   0  0
   -3.6428   -2.8608   -6.3926 C   0  0
   -4.3032   -4.0974   -6.3016 C   0  0
   -3.5581   -5.2905   -6.2557 C   0  0
    2.6538   -8.5640    0.5289 C   0  0
    2.6200   -7.8204   -0.6301 O   0  0
    1.7218   -7.3215  -11.0107 C   0  0
    2.9138   -8.0650  -10.9553 C   0  0
    3.8313   -7.8441   -9.9134 C   0  0
    3.5499   -6.8914   -8.9172 C   0  0
    2.3507   -6.1391   -8.9515 C   0  0
    1.4472   -6.3613  -10.0207 C   0  0
    2.0647   -5.1763   -7.9486 C   0  0
    1.3646   -4.1743   -8.2177 O   0  0
   -2.7376   -5.0057    1.5256 C   0  0
   -3.3569   -6.1038    1.3108 O   0  0
   -2.9635   -4.0042    2.5742 C   0  0
   -2.0242   -2.9871    2.8681 C   0  0
   -2.3078   -2.0055    3.8350 C   0  0
   -3.5313   -2.0347    4.5270 C   0  0
   -4.4644   -3.0523    4.2591 C   0  0
   -4.1753   -4.0386    3.2996 C   0  0
    1.9218   -9.5821    0.5860 O   0  0
    3.4644   -8.2187    1.6541 C   0  0
    5.1044   -6.7529    2.7605 C   0  0
    4.3128   -7.0824    1.6409 C   0  0
    3.4451   -9.0099    2.8351 C   0  0
    4.2339   -8.6822    3.9528 C   0  0
    5.0639   -7.5508    3.9171 C   0  0
    0.7916   -8.1581   -1.4153 H   0  0
    2.2690   -9.0192   -2.2154 H   0  0
    1.8709   -6.0333   -2.3943 H   0  0
    3.1715   -5.0417   -4.0208 H   0  0
    2.5188   -7.1759   -6.2229 H   0  0
    0.6325   -5.1600   -4.8482 H   0  0
    0.5834   -8.1243   -4.2321 H   0  0
    1.5003   -4.5509    0.1959 H   0  0
    1.1017   -2.7055    0.1959 H   0  0
   -0.9139   -4.9759   -3.5376 H   0  0
   -2.6866   -6.4187   -1.3842 H   0  0
   -2.7542   -3.4846   -2.3734 H   0  0
   -1.9444   -2.9202   -0.0144 H   0  0
    6.7756   -2.6939   -2.5766 H   0  0
    5.3595   -3.4463   -4.4661 H   0  0
    5.9732   -7.5640   -3.3000 H   0  0
    7.3987   -6.8240   -1.4163 H   0  0
    9.5899   -5.9118    1.7383 H   0  0
   10.1668   -4.3932    1.0107 H   0  0
    8.7091   -4.3932    2.0321 H   0  0
   -5.3908   -0.2614   -0.1427 H   0  0
   -6.3510    1.4141   -1.6993 H   0  0
   -6.6792    0.8495   -4.1073 H   0  0
   -6.0287   -1.4041   -4.9524 H   0  0
   -5.0359   -3.0814   -3.4126 H   0  0
   -7.2636   -6.7214   -2.1454 H   0  0
   -3.3372   -8.5484   -2.3531 H   0  0
   -4.2440  -10.5920   -1.2694 H   0  0
   -6.6487  -10.7093   -0.6162 H   0  0
   -8.1505   -8.7652   -1.0517 H   0  0
   -0.4141   -3.9569   -6.4281 H   0  0
   -1.7279   -1.8583   -6.5107 H   0  0
   -4.2177   -1.9355   -6.4290 H   0  0
   -5.3921   -4.1312   -6.2667 H   0  0
   -4.0864   -6.2424   -6.2015 H   0  0
    1.0112   -7.4893  -11.8201 H   0  0
    3.1266   -8.8123  -11.7198 H   0  0
    4.7612   -8.4118   -9.8778 H   0  0
    4.2673   -6.7347   -8.1117 H   0  0
    0.5251   -5.7835  -10.0828 H   0  0
   -1.0695   -2.9592    2.3428 H   0  0
   -1.5798   -1.2227    4.0480 H   0  0
   -3.7562   -1.2696    5.2701 H   0  0
   -5.4128   -3.0765    4.7958 H   0  0
   -4.8959   -4.8358    3.1167 H   0  0
    5.7515   -5.8763    2.7318 H   0  0
    4.3573   -6.4506    0.7539 H   0  0
    2.8075   -9.8926    2.8851 H   0  0
    4.2019   -9.3052    4.8466 H   0  0
    5.6738   -7.2931    4.7830 H   0  0
  2  1  1  0
  2  3  1  0
  4  3  1  0
  4  5  1  0
  6  4  1  0
  6  7  1  0
  6  8  1  0
  8  9  1  0
  8 10  1  0
 10  2  1  0
 12 13  1  0
 14 13  1  0
 14 15  1  0
 16 14  1  0
 16 17  1  0
 16 18  1  0
 18 19  1  0
 18 20  1  0
 20 12  1  0
 20 21  1  0
 10 15  1  0
  5 22  1  0
 23 24  1  0
 25 26  2  0
 26 27  1  0
 23 27  2  0
 24 22  2  0
 22 25  1  0
 27 28  1  0
 28 30  1  0
 28 29  2  0
 30 31  1  0
 19 32  1  0
 32 33  2  0
 32 34  1  0
 35 36  2  0
 36 37  1  0
 37 38  2  0
 38 39  1  0
 34 35  1  0
 34 39  2  0
 17 40  1  0
 40 41  2  0
 40 42  1  0
 44 45  1  0
 45 46  2  0
 46 47  1  0
 43 47  2  0
 43 42  1  0
 42 44  2  0
  9 48  1  0
 48 49  1  0
 48 50  2  0
 51 52  1  0
 52 53  2  0
 53 54  1  0
 54 55  2  0
 55 49  1  0
 51 49  2  0
 57 56  1  0
 58 59  1  0
 59 60  2  0
 60 61  1  0
 61 62  2  0
 62 63  1  0
 58 63  2  0
  7 64  1  0
 64 62  1  0
 64 65  2  0
 21 66  1  0
 66 67  2  0
 66 68  1  0
 69 70  1  0
 70 71  2  0
 71 72  1  0
 72 73  2  0
 73 68  1  0
 69 68  2  0
  1 57  1  0
 56 75  1  0
 56 74  2  0
 76 77  1  0
 78 79  2  0
 79 80  1  0
 76 80  2  0
 77 75  2  0
 75 78  1  0
 12 11  2  0
  1 81  1  0
  1 82  1  0
  2 83  1  0
  4 84  1  0
  6 85  1  0
  8 86  1  0
 10 87  1  0
 11 88  1  0
 11 89  1  0
 14 90  1  0
 16 91  1  0
 18 92  1  0
 20 93  1  0
 23 94  1  0
 24 95  1  0
 25 96  1  0
 26 97  1  0
 31 98  1  0
 31 99  1  0
 31100  1  0
 35101  1  0
 36102  1  0
 37103  1  0
 38104  1  0
 39105  1  0
 43106  1  0
 44107  1  0
 45108  1  0
 46109  1  0
 47110  1  0
 51111  1  0
 52112  1  0
 53113  1  0
 54114  1  0
 55115  1  0
 58116  1  0
 59117  1  0
 60118  1  0
 61119  1  0
 63120  1  0
 69121  1  0
 70122  1  0
 71123  1  0
 72124  1  0
 73125  1  0
 76126  1  0
 77127  1  0
 78128  1  0
 79129  1  0
 80130  1  0
M  END
> <Name>
APB2007-20b

$$$$
APB2007-22
  SciTegic12132405553D

121128  0  0  0  0            999 V2000
   -0.3229   -8.0937   -0.3241 C   0  0
   -0.2480   -6.5456   -0.3435 C   0  0  1  0  0  0
    1.1566   -6.2250   -0.4672 O   0  0
    1.4769   -4.8246   -0.3219 C   0  0  1  0  0  0
    2.9051   -4.6192   -0.4399 O   0  0
    0.7614   -4.0113   -1.4332 C   0  0  2  0  0  0
    1.0830   -2.6291   -1.2122 O   0  0
   -0.7749   -4.2883   -1.4033 C   0  0  1  0  0  0
   -1.4258   -3.5633   -2.4742 O   0  0
   -1.0576   -5.8272   -1.4942 C   0  0  2  0  0  0
   -3.3190   -5.0020   -6.0060 O   0  0
   -2.9192   -5.4881   -4.7281 C   0  0
   -3.6094   -6.8260   -4.3774 C   0  0  1  0  0  0
   -2.8694   -7.5168   -3.3468 O   0  0
   -3.1245   -7.1916   -1.9636 C   0  0  1  0  0  0
   -2.5017   -5.9796   -1.4578 O   0  0
   -4.6399   -7.2129   -1.6228 C   0  0  2  0  0  0
   -5.1618   -8.5561   -1.6496 O   0  0
   -5.4387   -6.3363   -2.6108 C   0  0  1  0  0  0
   -5.1771   -4.9029   -2.3475 O   0  0
   -5.1397   -6.7242   -4.0793 C   0  0  1  0  0  0
   -5.8075   -5.8216   -4.9592 O   0  0
    3.6449   -5.1909    0.5649 C   0  0
    4.5326   -5.1598    2.8411 C   0  0
    3.7886   -4.5530    1.8137 C   0  0
    4.3001   -6.4176    0.3437 C   0  0
    5.0434   -7.0264    1.3729 C   0  0
    5.1691   -6.4102    2.6431 C   0  0
    5.9059   -7.0255    3.6915 C   0  0
    6.1408   -6.4053    4.7574 O   0  0
    6.3590   -8.3110    3.5654 O   0  0
    7.0511   -9.0644    4.5670 C   0  0
   -5.4165   -4.0832   -1.2291 C   0  0
   -4.5643   -4.0057   -0.3160 O   0  0
   -6.7524   -3.3655   -1.1310 C   0  0
   -7.8000   -3.5009   -2.1308 C   0  0
   -9.0668   -2.9077   -2.0080 C   0  0
   -9.3664   -2.1249   -0.8854 C   0  0
   -8.3926   -1.9109    0.1011 C   0  0
   -7.1263   -2.5094   -0.0180 C   0  0
   -4.8842   -9.5106   -0.7117 C   0  0
   -4.3318  -10.5546   -1.1287 O   0  0
   -5.2316   -9.3567    0.6583 C   0  0
   -4.5556  -10.0856    1.6680 C   0  0
   -6.2544   -8.4568    1.0507 C   0  0
   -6.5717   -8.2696    2.4085 C   0  0
   -5.8850   -8.9946    3.3972 C   0  0
   -4.8799   -9.9043    3.0260 C   0  0
   -2.3530   -2.5442   -2.3994 C   0  0
   -2.9111   -1.9598   -3.5743 C   0  0
   -2.6999   -2.1159   -1.2733 O   0  0
   -2.2789   -2.1132   -4.8334 C   0  0
   -2.8370   -1.5576   -6.0013 C   0  0
   -4.0373   -0.8310   -5.9326 C   0  0
   -4.6766   -0.6568   -4.6939 C   0  0
   -4.1180   -1.2130   -3.5275 C   0  0
    0.7364  -10.1195    0.6431 C   0  0
    0.6192   -8.7505    0.5393 O   0  0
    1.7013   -0.4581   -5.5457 C   0  0
    2.9075   -1.1415   -5.7737 C   0  0
    3.4312   -1.9876   -4.7807 C   0  0
    2.7531   -2.1437   -3.5577 C   0  0
    1.5386   -1.4578   -3.3079 C   0  0
    1.0240   -0.6148   -4.3231 C   0  0
    0.8590   -1.5966   -2.0708 C   0  0
    0.0686   -0.7120   -1.6698 O   0  0
    0.0802  -10.8423   -0.1476 O   0  0
    1.5899  -10.7272    1.6062 C   0  0
    3.2636  -10.5379    3.3962 C   0  0
    2.4321   -9.9402    2.4302 C   0  0
    1.6099  -12.1361    1.7874 C   0  0
    2.4412  -12.7337    2.7530 C   0  0
    3.2707  -11.9347    3.5570 C   0  0
   -1.2929   -8.3594    0.0961 H   0  0
   -0.0483   -8.4375   -1.3213 H   0  0
   -0.6387   -6.1630    0.5994 H   0  0
    1.1877   -4.5434    0.6908 H   0  0
    1.1292   -4.2262   -2.4365 H   0  0
   -1.2314   -3.8818   -0.5008 H   0  0
   -0.7992   -6.3179   -2.4326 H   0  0
   -3.5010   -5.7435   -6.5878 H   0  0
   -1.8511   -5.6817   -4.8269 H   0  0
   -3.2739   -4.7369   -4.0224 H   0  0
   -3.5212   -7.4867   -5.2399 H   0  0
   -2.5463   -7.9770   -1.4770 H   0  0
   -4.7871   -6.8758   -0.5967 H   0  0
   -6.5071   -6.4691   -2.4403 H   0  0
   -5.5956   -7.6860   -4.3144 H   0  0
   -6.2893   -5.1703   -4.4442 H   0  0
    4.6170   -4.6544    3.8032 H   0  0
    3.3209   -3.5837    1.9862 H   0  0
    4.2314   -6.8996   -0.6315 H   0  0
    5.5267   -7.9850    1.1844 H   0  0
    6.7404   -8.7261    5.5555 H   0  0
    6.8145  -10.1224    4.4541 H   0  0
    8.1253   -8.9183    4.4541 H   0  0
   -7.6239   -4.0865   -3.0331 H   0  0
   -9.8177   -3.0549   -2.7842 H   0  0
  -10.3570   -1.6824   -0.7796 H   0  0
   -8.6198   -1.2796    0.9602 H   0  0
   -6.4113   -2.3030    0.7783 H   0  0
   -3.7748  -10.7959    1.3963 H   0  0
   -6.8068   -7.8987    0.2947 H   0  0
   -7.3501   -7.5624    2.6946 H   0  0
   -6.1314   -8.8517    4.4493 H   0  0
   -4.3508  -10.4703    3.7927 H   0  0
   -1.3446   -2.6699   -4.9050 H   0  0
   -2.3382   -1.6903   -6.9614 H   0  0
   -4.4710   -0.4041   -6.8369 H   0  0
   -5.6061   -0.0901   -4.6377 H   0  0
   -4.6268   -1.0635   -2.5752 H   0  0
    1.2911    0.1935   -6.3173 H   0  0
    3.4359   -1.0155   -6.7187 H   0  0
    4.3637   -2.5231   -4.9592 H   0  0
    3.1725   -2.8019   -2.7967 H   0  0
    0.0899   -0.0770   -4.1606 H   0  0
    3.9043   -9.9167    4.0220 H   0  0
    2.4404   -8.8559    2.3189 H   0  0
    0.9736  -12.7724    1.1722 H   0  0
    2.4425  -13.8165    2.8784 H   0  0
    3.9175  -12.3968    4.3029 H   0  0
  2  1  1  0
  2  3  1  0
  4  3  1  0
  4  5  1  0
  6  4  1  0
  6  7  1  0
  6  8  1  0
  8  9  1  0
  8 10  1  0
 10  2  1  0
 11 12  1  0
 13 12  1  0
 13 14  1  0
 15 14  1  0
 15 16  1  0
 17 15  1  0
 17 18  1  0
 17 19  1  0
 19 20  1  0
 19 21  1  0
 21 13  1  0
 21 22  1  0
 10 16  1  0
  5 23  1  0
 24 25  1  0
 26 27  2  0
 27 28  1  0
 24 28  2  0
 25 23  2  0
 23 26  1  0
 28 29  1  0
 29 31  1  0
 29 30  2  0
 31 32  1  0
 20 33  1  0
 33 34  2  0
 33 35  1  0
 36 37  2  0
 37 38  1  0
 38 39  2  0
 39 40  1  0
 35 36  1  0
 35 40  2  0
 18 41  1  0
 41 42  2  0
 41 43  1  0
 45 46  1  0
 46 47  2  0
 47 48  1  0
 44 48  2  0
 44 43  1  0
 43 45  2  0
  9 49  1  0
 49 50  1  0
 49 51  2  0
 52 53  1  0
 53 54  2  0
 54 55  1  0
 55 56  2  0
 56 50  1  0
 52 50  2  0
 58 57  1  0
 59 60  1  0
 60 61  2  0
 61 62  1  0
 62 63  2  0
 63 64  1  0
 59 64  2  0
  7 65  1  0
 65 63  1  0
 65 66  2  0
  1 58  1  0
 57 68  1  0
 57 67  2  0
 69 70  1  0
 71 72  2  0
 72 73  1  0
 69 73  2  0
 70 68  2  0
 68 71  1  0
  1 74  1  0
  1 75  1  0
  2 76  1  0
  4 77  1  0
  6 78  1  0
  8 79  1  0
 10 80  1  0
 11 81  1  0
 12 82  1  0
 12 83  1  0
 13 84  1  0
 15 85  1  0
 17 86  1  0
 19 87  1  0
 21 88  1  0
 22 89  1  0
 24 90  1  0
 25 91  1  0
 26 92  1  0
 27 93  1  0
 32 94  1  0
 32 95  1  0
 32 96  1  0
 36 97  1  0
 37 98  1  0
 38 99  1  0
 39100  1  0
 40101  1  0
 44102  1  0
 45103  1  0
 46104  1  0
 47105  1  0
 48106  1  0
 52107  1  0
 53108  1  0
 54109  1  0
 55110  1  0
 56111  1  0
 59112  1  0
 60113  1  0
 61114  1  0
 62115  1  0
 64116  1  0
 69117  1  0
 70118  1  0
 71119  1  0
 72120  1  0
 73121  1  0
M  END
> <Name>
APB2007-22

$$$$
APB2007-23
  SciTegic12132405553D

120127  0  0  0  0            999 V2000
   -0.8136   -7.8482    0.8773 C   0  0
   -0.4146   -6.6713   -0.0551 C   0  0  1  0  0  0
    0.8680   -7.1221   -0.5550 O   0  0
    1.5208   -6.2949   -1.5329 C   0  0  1  0  0  0
    2.7922   -6.8691   -1.9181 O   0  0
    0.6089   -6.2126   -2.7800 C   0  0  2  0  0  0
    1.3042   -5.4244   -3.7614 O   0  0
   -0.7447   -5.5700   -2.3645 C   0  0  1  0  0  0
   -1.6120   -5.5109   -3.5162 O   0  0
   -1.4440   -6.3519   -1.2038 C   0  0  2  0  0  0
   -5.7464   -8.1328   -4.3680 I   0  0
   -4.4790   -7.3198   -2.8670 C   0  0
   -5.1936   -7.1327   -1.5043 C   0  0  1  0  0  0
   -4.2655   -7.1607   -0.3858 O   0  0
   -3.6202   -5.9292    0.0186 C   0  0  1  0  0  0
   -2.5661   -5.4864   -0.8626 O   0  0
   -4.6682   -4.8017    0.2503 C   0  0  2  0  0  0
   -5.5599   -5.1181    1.3362 O   0  0
   -5.5520   -4.5947   -1.0060 C   0  0  1  0  0  0
   -4.8419   -3.9741   -2.0931 O   0  0
   -6.1998   -5.9349   -1.4473 C   0  0  1  0  0  0
   -6.9077   -5.7339   -2.6700 O   0  0
    3.7044   -6.9488   -0.8970 C   0  0
    5.5242   -5.9902    0.4211 C   0  0
    4.5944   -5.8892   -0.6316 C   0  0
    3.7795   -8.1197   -0.1200 C   0  0
    4.7026   -8.2158    0.9368 C   0  0
    5.5890   -7.1512    1.2324 C   0  0
    6.5039   -7.2420    2.3187 C   0  0
    7.3747   -6.3574    2.5038 O   0  0
    6.4380   -8.2895    3.1977 O   0  0
    7.2481   -8.4651    4.3661 C   0  0
   -4.4218   -2.6758   -2.0614 C   0  0
   -3.2008   -2.5532   -1.7031 O   0  0
   -5.3927   -1.6246   -2.4011 C   0  0
   -6.6998   -1.9212   -2.8564 C   0  0
   -7.6405   -0.8961   -3.0635 C   0  0
   -7.2788    0.4441   -2.8454 C   0  0
   -5.9699    0.7600   -2.4425 C   0  0
   -5.0328   -0.2681   -2.2275 C   0  0
   -5.1985   -5.2523    2.6396 C   0  0
   -5.3203   -6.3987    3.1293 O   0  0
   -4.7557   -4.1570    3.4225 C   0  0
   -3.8799   -4.3713    4.5134 C   0  0
   -5.1687   -2.8316    3.1368 C   0  0
   -4.7300   -1.7557    3.9325 C   0  0
   -3.8642   -1.9881    5.0155 C   0  0
   -3.4367   -3.2956    5.3028 C   0  0
   -2.0522   -4.4037   -4.1985 C   0  0
   -2.9818   -4.5377   -5.2644 C   0  0
   -1.6098   -3.2727   -3.8856 O   0  0
   -3.1816   -5.7866   -5.9019 C   0  0
   -4.1308   -5.9302   -6.9307 C   0  0
   -4.8948   -4.8265   -7.3427 C   0  0
   -4.6985   -3.5751   -6.7376 C   0  0
   -3.7498   -3.4326   -5.7090 C   0  0
   -0.0512   -8.6916    3.1097 C   0  0
    0.0561   -7.8738    2.0179 O   0  0
    0.3074   -7.4725   -8.0901 C   0  0
    1.0083   -8.6463   -7.7664 C   0  0
    1.7067   -8.7288   -6.5496 C   0  0
    1.7097   -7.6378   -5.6599 C   0  0
    1.0037   -6.4475   -5.9692 C   0  0
    0.3019   -6.3855   -7.1978 C   0  0
    1.0097   -5.3328   -5.0886 C   0  0
    0.8388   -4.1723   -5.5285 O   0  0
   -0.9737   -9.5415    3.1529 O   0  0
    0.8432   -8.5402    4.2012 C   0  0
    2.9755   -7.7336    5.1173 C   0  0
    2.1080   -7.9248    4.0257 C   0  0
    0.4833   -8.9710    5.5028 C   0  0
    1.3440   -8.7681    6.5963 C   0  0
    2.5896   -8.1452    6.4047 C   0  0
   -1.8069   -7.6427    1.2763 H   0  0
   -0.6216   -8.7809    0.3469 H   0  0
   -0.3085   -5.7197    0.4658 H   0  0
    1.7338   -5.3373   -1.0579 H   0  0
    0.4284   -7.1721   -3.2646 H   0  0
   -0.5834   -4.5369   -2.0568 H   0  0
   -1.8858   -7.3191   -1.4437 H   0  0
   -3.7029   -8.0277   -2.5762 H   0  0
   -4.2179   -6.2843   -3.0856 H   0  0
   -5.7787   -8.0361   -1.3321 H   0  0
   -3.0753   -6.2180    0.9173 H   0  0
   -4.1359   -3.8971    0.5444 H   0  0
   -6.3148   -3.8476   -0.7865 H   0  0
   -6.9871   -6.2205   -0.7497 H   0  0
   -7.1303   -6.5849   -3.0545 H   0  0
    6.2029   -5.1586    0.6106 H   0  0
    4.5633   -4.9875   -1.2432 H   0  0
    3.1181   -8.9581   -0.3384 H   0  0
    4.7314   -9.1270    1.5343 H   0  0
    7.3819   -9.5295    4.5589 H   0  0
    8.2209   -7.9996    4.2070 H   0  0
    6.7582   -7.9996    5.2213 H   0  0
   -6.9863   -2.9548   -3.0504 H   0  0
   -8.6503   -1.1403   -3.3932 H   0  0
   -8.0125    1.2374   -2.9885 H   0  0
   -5.6820    1.8012   -2.2970 H   0  0
   -4.0181   -0.0112   -1.9234 H   0  0
   -3.5416   -5.3803    4.7492 H   0  0
   -5.8322   -2.6373    2.2942 H   0  0
   -5.0612   -0.7414    3.7098 H   0  0
   -3.5248   -1.1554    5.6316 H   0  0
   -2.7607   -3.4757    6.1387 H   0  0
   -2.5947   -6.6525   -5.5954 H   0  0
   -4.2746   -6.8987   -7.4096 H   0  0
   -5.6390   -4.9409   -8.1309 H   0  0
   -5.2820   -2.7150   -7.0661 H   0  0
   -3.6080   -2.4537   -5.2508 H   0  0
   -0.2326   -7.4052   -9.0345 H   0  0
    1.0102   -9.4898   -8.4568 H   0  0
    2.2471   -9.6407   -6.2954 H   0  0
    2.2632   -7.7154   -4.7241 H   0  0
   -0.2526   -5.4849   -7.4614 H   0  0
    3.9482   -7.2657    4.9654 H   0  0
    2.4187   -7.5933    3.0349 H   0  0
   -0.4731   -9.4677    5.6659 H   0  0
    1.0455   -9.0939    7.5928 H   0  0
    3.2548   -7.9816    7.2525 H   0  0
  2  1  1  0
  2  3  1  0
  4  3  1  0
  4  5  1  0
  6  4  1  0
  6  7  1  0
  6  8  1  0
  8  9  1  0
  8 10  1  0
 10  2  1  0
 11 12  1  0
 13 12  1  0
 13 14  1  0
 15 14  1  0
 15 16  1  0
 17 15  1  0
 17 18  1  0
 17 19  1  0
 19 20  1  0
 19 21  1  0
 21 13  1  0
 21 22  1  0
 10 16  1  0
  5 23  1  0
 24 25  1  0
 26 27  2  0
 27 28  1  0
 24 28  2  0
 25 23  2  0
 23 26  1  0
 28 29  1  0
 29 31  1  0
 29 30  2  0
 31 32  1  0
 20 33  1  0
 33 34  2  0
 33 35  1  0
 36 37  2  0
 37 38  1  0
 38 39  2  0
 39 40  1  0
 35 36  1  0
 35 40  2  0
 18 41  1  0
 41 42  2  0
 41 43  1  0
 45 46  1  0
 46 47  2  0
 47 48  1  0
 44 48  2  0
 44 43  1  0
 43 45  2  0
  9 49  1  0
 49 50  1  0
 49 51  2  0
 52 53  1  0
 53 54  2  0
 54 55  1  0
 55 56  2  0
 56 50  1  0
 52 50  2  0
 58 57  1  0
 59 60  1  0
 60 61  2  0
 61 62  1  0
 62 63  2  0
 63 64  1  0
 59 64  2  0
  7 65  1  0
 65 63  1  0
 65 66  2  0
  1 58  1  0
 57 68  1  0
 57 67  2  0
 69 70  1  0
 71 72  2  0
 72 73  1  0
 69 73  2  0
 70 68  2  0
 68 71  1  0
  1 74  1  0
  1 75  1  0
  2 76  1  0
  4 77  1  0
  6 78  1  0
  8 79  1  0
 10 80  1  0
 12 81  1  0
 12 82  1  0
 13 83  1  0
 15 84  1  0
 17 85  1  0
 19 86  1  0
 21 87  1  0
 22 88  1  0
 24 89  1  0
 25 90  1  0
 26 91  1  0
 27 92  1  0
 32 93  1  0
 32 94  1  0
 32 95  1  0
 36 96  1  0
 37 97  1  0
 38 98  1  0
 39 99  1  0
 40100  1  0
 44101  1  0
 45102  1  0
 46103  1  0
 47104  1  0
 48105  1  0
 52106  1  0
 53107  1  0
 54108  1  0
 55109  1  0
 56110  1  0
 59111  1  0
 60112  1  0
 61113  1  0
 62114  1  0
 64115  1  0
 69116  1  0
 70117  1  0
 71118  1  0
 72119  1  0
 73120  1  0
M  END
> <Name>
APB2007-23

$$$$
APB2007-B8
  SciTegic12132405553D

 68 70  0  0  0  0            999 V2000
   -5.6607    0.1638    1.1556 O   0  0
   -6.6464    0.2677    0.1344 C   0  0
   -6.3618    1.4850   -0.7799 C   0  0  1  0  0  0
   -5.0385    1.3282   -1.3416 O   0  0
   -4.6410    2.4366   -2.1839 C   0  0  1  0  0  0
   -3.2356    2.3899   -2.5179 O   0  0
   -5.5179    2.3735   -3.4588 C   0  0  2  0  0  0
   -5.0998    3.3452   -4.4171 O   0  0
   -7.0026    2.6031   -3.0560 C   0  0  1  0  0  0
   -7.8462    2.4203   -4.1927 O   0  0
   -7.4583    1.6619   -1.8919 C   0  0  2  0  0  0
   -6.1547    4.6443    1.7560 O   0  0
   -7.4769    4.7209    2.2775 C   0  0
   -8.5110    4.6534    1.1266 C   0  0  1  0  0  0
   -8.3395    3.3890    0.4541 O   0  0
   -9.1000    3.2171   -0.7594 C   0  0  1  0  0  0
   -8.7940    1.9441   -1.3843 O   0  0
  -10.6083    3.2592   -0.3959 C   0  0  2  0  0  0
  -11.4020    3.1774   -1.5781 O   0  0
  -10.9513    4.5582    0.3928 C   0  0  1  0  0  0
  -12.3063    4.5173    0.8380 O   0  0
   -9.9898    4.7891    1.5952 C   0  0  1  0  0  0
  -10.2834    3.8512    2.6311 O   0  0
   -2.4177    2.4485   -1.4139 C   0  0
   -1.3166    3.6708    0.4093 C   0  0
   -2.1116    3.6787   -0.7604 C   0  0
   -1.8739    1.2182   -0.9725 C   0  0
   -1.0552    1.1362    0.1651 C   0  0
   -0.7875    2.3890    0.8549 C   0  0
    0.0358    2.3658    2.0197 C   0  0
    0.4240    1.2812    2.5179 O   0  0
    0.4464    3.5309    2.6080 O   0  0
   -2.6336    4.8448   -1.2536 N   0  0
    1.2400    3.6607    3.7917 C   0  0
   -2.0469    6.0743   -1.3075 C   0  0
   -0.8592    6.2727   -0.9550 O   0  0
   -2.8432    7.2010   -1.8202 C   0  0
   -5.4849   -0.7622    1.3376 H   0  0
   -6.5297   -0.6365   -0.4630 H   0  0
   -7.5811    0.4549    0.6629 H   0  0
   -6.3175    2.4046   -0.1965 H   0  0
   -4.7399    3.3554   -1.6058 H   0  0
   -5.3770    1.4341   -3.9933 H   0  0
   -4.7659    4.1212   -3.9612 H   0  0
   -7.1453    3.6443   -2.7671 H   0  0
   -7.9663    1.4817   -4.3545 H   0  0
   -7.6615    0.6800   -2.3193 H   0  0
   -5.5263    4.6078    2.4809 H   0  0
   -7.5933    3.8265    2.8896 H   0  0
   -7.5449    5.7076    2.7358 H   0  0
   -8.3053    5.4521    0.4139 H   0  0
   -8.7770    3.9912   -1.4555 H   0  0
  -10.8883    2.3736    0.1746 H   0  0
  -11.5512    2.2555   -1.8003 H   0  0
  -10.9122    5.4194   -0.2743 H   0  0
  -12.3279    4.5167    1.7978 H   0  0
  -10.1558    5.7576    2.0669 H   0  0
  -10.1870    2.9586    2.2912 H   0  0
   -1.1219    4.6031    0.9394 H   0  0
   -2.0926    0.3050   -1.5260 H   0  0
   -0.6579    0.1739    0.4879 H   0  0
   -3.5713    4.7912   -1.6251 H   0  0
    1.4934    2.6703    4.1697 H   0  0
    2.1547    4.2054    3.5579 H   0  0
    0.6763    4.2054    4.5491 H   0  0
   -3.2464    7.7714   -0.9834 H   0  0
   -2.2097    7.8466   -2.4284 H   0  0
   -3.6633    6.8192   -2.4284 H   0  0
  1  2  1  0
  3  2  1  0
  3  4  1  0
  5  4  1  0
  5  6  1  0
  7  5  1  0
  7  8  1  0
  7  9  1  0
  9 10  1  0
  9 11  1  0
 11  3  1  0
 12 13  1  0
 14 13  1  0
 14 15  1  0
 16 15  1  0
 16 17  1  0
 18 16  1  0
 18 19  1  0
 18 20  1  0
 20 21  1  0
 20 22  1  0
 22 14  1  0
 22 23  1  0
 11 17  1  0
  6 24  1  0
 25 26  1  0
 27 28  2  0
 28 29  1  0
 25 29  2  0
 26 24  2  0
 24 27  1  0
 29 30  1  0
 30 32  1  0
 30 31  2  0
 26 33  1  0
 32 34  1  0
 33 35  1  0
 35 37  1  0
 35 36  2  0
  1 38  1  0
  2 39  1  0
  2 40  1  0
  3 41  1  0
  5 42  1  0
  7 43  1  0
  8 44  1  0
  9 45  1  0
 10 46  1  0
 11 47  1  0
 12 48  1  0
 13 49  1  0
 13 50  1  0
 14 51  1  0
 16 52  1  0
 18 53  1  0
 19 54  1  0
 20 55  1  0
 21 56  1  0
 22 57  1  0
 23 58  1  0
 25 59  1  0
 27 60  1  0
 28 61  1  0
 33 62  1  0
 34 63  1  0
 34 64  1  0
 34 65  1  0
 37 66  1  0
 37 67  1  0
 37 68  1  0
M  END
> <Name>
APB2007-B8

$$$$
APB2007-C1
  SciTegic12132405553D

 60 62  0  0  0  0            999 V2000
   -4.8615    1.1278    3.4426 I   0  0
   -4.9348   -0.3085    5.0040 C   0  0
   -4.8322   -1.7430    4.4316 C   0  0  1  0  0  0
   -3.5612   -1.8603    3.7607 O   0  0
   -3.3527   -3.1374    3.1144 C   0  0  1  0  0  0
   -2.1789   -3.0723    2.2720 O   0  0
   -3.2117   -4.1951    4.2365 C   0  0  2  0  0  0
   -2.8951   -5.4759    3.6935 O   0  0
   -4.5403   -4.2516    5.0473 C   0  0  1  0  0  0
   -4.3793   -5.1204    6.1673 O   0  0
   -5.0022   -2.8406    5.5393 C   0  0  2  0  0  0
   -7.7401   -1.6870    1.6988 O   0  0
   -8.9286   -1.5506    2.4742 C   0  0
   -8.9240   -2.5595    3.6481 C   0  0  1  0  0  0
   -7.7755   -2.2621    4.4650 O   0  0
   -7.5061   -3.2045    5.5226 C   0  0  1  0  0  0
   -6.2909   -2.8373    6.2224 O   0  0
   -8.7048   -3.1757    6.5121 C   0  0  2  0  0  0
   -8.5267   -4.1370    7.5508 O   0  0
  -10.0452   -3.4394    5.7652 C   0  0  1  0  0  0
  -11.1501   -3.2761    6.6551 O   0  0
  -10.2143   -2.5187    4.5216 C   0  0  1  0  0  0
  -10.5109   -1.1868    4.9472 O   0  0
   -2.3798   -2.2270    1.2044 C   0  0
   -3.2918   -1.8058   -1.0235 C   0  0
   -3.0003   -2.6927    0.0274 C   0  0
   -2.0068   -0.8714    1.2902 C   0  0
   -2.3051    0.0168    0.2399 C   0  0
   -2.9623   -0.4306   -0.9323 C   0  0
   -3.2799    0.4717   -1.9862 C   0  0
   -3.8727    0.0734   -3.0179 O   0  0
   -2.9516    1.7969   -1.8917 O   0  0
   -3.2200    2.8136   -2.8636 C   0  0
   -4.0396   -0.2727    5.6247 H   0  0
   -5.9197   -0.3454    5.4696 H   0  0
   -5.5897   -1.9097    3.6657 H   0  0
   -4.1728   -3.3482    2.4281 H   0  0
   -2.3521   -3.9868    4.8735 H   0  0
   -2.7414   -6.0976    4.4086 H   0  0
   -5.3214   -4.7065    4.4382 H   0  0
   -4.4216   -6.0332    5.8729 H   0  0
   -4.3900   -2.5517    6.3936 H   0  0
   -6.9843   -1.7738    2.2843 H   0  0
   -8.8809   -0.5455    2.8933 H   0  0
   -9.7408   -1.8219    1.7997 H   0  0
   -8.8140   -3.5721    3.2600 H   0  0
   -7.3224   -4.1761    5.0640 H   0  0
   -8.7324   -2.2236    7.0421 H   0  0
   -8.5898   -5.0213    7.1826 H   0  0
  -10.0967   -4.4847    5.4604 H   0  0
  -10.8398   -3.3220    7.5624 H   0  0
  -11.0843   -2.7957    3.9262 H   0  0
  -10.5187   -1.1517    5.9066 H   0  0
   -3.7792   -2.1890   -1.9199 H   0  0
   -3.2569   -3.7475   -0.0709 H   0  0
   -1.4842   -0.5075    2.1748 H   0  0
   -2.0232    1.0654    0.3355 H   0  0
   -3.4660    3.7460   -2.3555 H   0  0
   -2.3385    2.9615   -3.4875 H   0  0
   -4.0596    2.5073   -3.4875 H   0  0
  1  2  1  0
  3  2  1  0
  3  4  1  0
  5  4  1  0
  5  6  1  0
  7  5  1  0
  7  8  1  0
  7  9  1  0
  9 10  1  0
  9 11  1  0
 11  3  1  0
 12 13  1  0
 14 13  1  0
 14 15  1  0
 16 15  1  0
 16 17  1  0
 18 16  1  0
 18 19  1  0
 18 20  1  0
 20 21  1  0
 20 22  1  0
 22 14  1  0
 22 23  1  0
 11 17  1  0
  6 24  1  0
 25 26  1  0
 27 28  2  0
 28 29  1  0
 25 29  2  0
 26 24  2  0
 24 27  1  0
 29 30  1  0
 30 32  1  0
 30 31  2  0
 32 33  1  0
  2 34  1  0
  2 35  1  0
  3 36  1  0
  5 37  1  0
  7 38  1  0
  8 39  1  0
  9 40  1  0
 10 41  1  0
 11 42  1  0
 12 43  1  0
 13 44  1  0
 13 45  1  0
 14 46  1  0
 16 47  1  0
 18 48  1  0
 19 49  1  0
 20 50  1  0
 21 51  1  0
 22 52  1  0
 23 53  1  0
 25 54  1  0
 26 55  1  0
 27 56  1  0
 28 57  1  0
 33 58  1  0
 33 59  1  0
 33 60  1  0
M  END
> <Name>
APB2007-C1

$$$$
APB2007-16
  SciTegic12132405553D

 72 76  0  0  0  0            999 V2000
   -3.7228    6.5806    0.8220 O   0  0
   -3.7941    5.4545    1.6909 C   0  0
   -3.5081    4.1546    0.8963 C   0  0  1  0  0  0
   -2.1429    4.2611    0.3799 O   0  0
   -1.7688    3.1474   -0.4674 C   0  0  1  0  0  0
   -0.5090    3.4501   -1.1083 O   0  0
   -1.6719    1.8583    0.3932 C   0  0  2  0  0  0
   -1.2366    0.7490   -0.3946 O   0  0
   -3.0796    1.5665    1.0647 C   0  0  1  0  0  0
   -2.8735    0.4154    1.9262 O   0  0
   -3.7686    2.8533    1.8229 C   0  0  2  0  0  0
   -7.7439    5.6525   -0.9952 O   0  0
   -7.0694    4.5305   -1.6006 C   0  0
   -7.1553    3.2714   -0.7136 C   0  0  1  0  0  0
   -6.3046    3.4920    0.4205 O   0  0
   -6.1668    2.3688    1.3035 C   0  0  1  0  0  0
   -5.1371    2.6497    2.2778 O   0  0
   -7.5556    2.1671    1.9676 C   0  0  2  0  0  0
   -7.5291    1.0559    2.8614 O   0  0
   -8.6563    1.9576    0.8808 C   0  0  1  0  0  0
   -9.9485    1.9251    1.4865 O   0  0
   -8.6180    3.0457   -0.2360 C   0  0  1  0  0  0
   -9.1970    4.2808    0.2546 O   0  0
   -0.5997    4.5387   -1.9479 C   0  0
   -1.1623    5.4992   -4.1250 C   0  0
   -1.0125    4.3798   -3.2853 C   0  0
   -0.2983    5.8315   -1.4754 C   0  0
   -0.4539    6.9521   -2.3123 C   0  0
   -0.8979    6.8104   -3.6529 C   0  0
   -1.0802    7.9433   -4.4975 C   0  0
   -0.9338    9.1071   -4.0501 O   0  0
   -1.4316    7.7902   -5.8127 O   0  0
   -1.6456    8.8366   -6.7657 C   0  0
   -9.1288    5.3979   -0.6671 C   0  0  2  0  0  0
  -10.0345    5.3019   -1.8536 C   0  0
  -11.6912    5.0085   -4.1361 C   0  0
  -12.0713    4.4342   -2.9101 C   0  0
  -11.2522    4.5850   -1.7767 C   0  0
   -9.6949    5.9206   -3.0835 C   0  0
  -10.5093    5.7629   -4.2191 C   0  0
   -3.6719    7.3848    1.3439 H   0  0
   -2.9872    5.5972    2.4096 H   0  0
   -4.8288    5.4226    2.0323 H   0  0
   -4.1192    4.0762   -0.0029 H   0  0
   -2.5044    3.0519   -1.2660 H   0  0
   -0.8695    1.9424    1.1261 H   0  0
   -0.9568    0.0359    0.1840 H   0  0
   -3.8038    1.2317    0.3222 H   0  0
   -2.9227    0.6901    2.8447 H   0  0
   -3.4207    3.0103    2.8440 H   0  0
   -7.6245    4.3257   -2.5160 H   0  0
   -6.0210    4.8241   -1.6531 H   0  0
   -6.7832    2.3844   -1.2262 H   0  0
   -5.8068    1.4977    0.7561 H   0  0
   -7.7932    3.0117    2.6144 H   0  0
   -7.5367    1.3735    3.7672 H   0  0
   -8.5369    0.9714    0.4322 H   0  0
   -9.8542    1.9275    2.4419 H   0  0
   -9.2494    2.7674   -1.0799 H   0  0
   -1.4874    5.3488   -5.1544 H   0  0
   -1.2176    3.3822   -3.6736 H   0  0
    0.0582    5.9658   -0.4542 H   0  0
   -0.2277    7.9425   -1.9172 H   0  0
   -1.8371    9.7725   -6.2408 H   0  0
   -0.7595    8.9455   -7.3910 H   0  0
   -2.5033    8.5887   -7.3910 H   0  0
   -9.5024    6.2688   -0.1285 H   0  0
  -12.3120    4.8689   -5.0211 H   0  0
  -13.0021    3.8716   -2.8382 H   0  0
  -11.5637    4.1423   -0.8306 H   0  0
   -8.7926    6.5276   -3.1573 H   0  0
  -10.2242    6.2256   -5.1639 H   0  0
  1  2  1  0
  3  2  1  0
  3  4  1  0
  5  4  1  0
  5  6  1  0
  7  5  1  0
  7  8  1  0
  7  9  1  0
  9 10  1  0
  9 11  1  0
 11  3  1  0
 12 13  1  0
 14 13  1  0
 14 15  1  0
 16 15  1  0
 16 17  1  0
 18 16  1  0
 18 19  1  0
 18 20  1  0
 20 21  1  0
 20 22  1  0
 22 14  1  0
 22 23  1  0
 11 17  1  0
  6 24  1  0
 25 26  1  0
 27 28  2  0
 28 29  1  0
 25 29  2  0
 26 24  2  0
 24 27  1  0
 29 30  1  0
 30 32  1  0
 30 31  2  0
 32 33  1  0
 34 23  1  0
 34 12  1  0
 34 35  1  0
 36 37  1  0
 37 38  2  0
 39 40  1  0
 36 40  2  0
 38 35  1  0
 35 39  2  0
  1 41  1  0
  2 42  1  0
  2 43  1  0
  3 44  1  0
  5 45  1  0
  7 46  1  0
  8 47  1  0
  9 48  1  0
 10 49  1  0
 11 50  1  0
 13 51  1  0
 13 52  1  0
 14 53  1  0
 16 54  1  0
 18 55  1  0
 19 56  1  0
 20 57  1  0
 21 58  1  0
 22 59  1  0
 25 60  1  0
 26 61  1  0
 27 62  1  0
 28 63  1  0
 33 64  1  0
 33 65  1  0
 33 66  1  0
 34 67  1  0
 36 68  1  0
 37 69  1  0
 38 70  1  0
 39 71  1  0
 40 72  1  0
M  END
> <Name>
APB2007-16

$$$$
APB2007-17a
  SciTegic12132405553D

 71 75  0  0  0  0            999 V2000
   -3.8030   -1.1981    4.2351 I   0  0
   -3.8890   -2.2263    5.2173 C   0  0
   -3.6222   -3.6208    4.5930 C   0  0  1  0  0  0
   -2.2695   -3.6055    4.0294 O   0  0
   -1.9195   -4.8470    3.3637 C   0  0  1  0  0  0
   -0.6730   -4.6715    2.6555 O   0  0
   -1.7886   -5.9797    4.4153 C   0  0  2  0  0  0
   -1.3411   -7.1940    3.8077 O   0  0
   -3.1866   -6.1690    5.1418 C   0  0  1  0  0  0
   -2.9656   -7.1660    6.1735 O   0  0
   -3.8707   -4.7811    5.6975 C   0  0  2  0  0  0
   -7.8861   -2.3418    2.7373 O   0  0
   -7.3761   -3.5696    2.1846 C   0  0
   -7.3980   -4.6994    3.2379 C   0  0  1  0  0  0
   -6.4356   -4.3603    4.2505 O   0  0
   -6.2790   -5.3324    5.2977 C   0  0  1  0  0  0
   -5.2291   -4.9161    6.1966 O   0  0
   -7.6237   -5.4177    6.0691 C   0  0  2  0  0  0
   -7.5550   -6.4006    7.1002 O   0  0
   -8.7911   -5.7467    5.0936 C   0  0  1  0  0  0
  -10.0357   -5.6890    5.7893 O   0  0
   -8.8193   -4.7916    3.8656 C   0  0  1  0  0  0
   -9.2803   -3.4893    4.2915 O   0  0
   -0.7949   -3.7707    1.6280 C   0  0
   -0.6892   -1.4729    0.8112 C   0  0
   -0.4920   -2.4125    1.8388 C   0  0
   -1.2479   -4.1871    0.3614 C   0  0
   -1.4399   -3.2469   -0.6673 C   0  0
   -1.1777   -1.8679   -0.4599 C   0  0
   -1.4061   -0.9083   -1.4871 C   0  0
   -1.8389   -1.2595   -2.6118 O   0  0
   -1.1720    0.4216   -1.2638 O   0  0
   -1.3861    1.4908   -2.1917 C   0  0
   -9.2210   -2.4698    3.2683 C   0  0  1  0  0  0
   -9.6041   -1.1429    3.8191 C   0  0
  -10.3208    1.4074    4.8338 C   0  0
  -10.6769    1.0460    3.5227 C   0  0
  -10.3228   -0.2195    3.0208 C   0  0
   -9.2366   -0.7553    5.1317 C   0  0
   -9.5998    0.5068    5.6377 C   0  0
   -3.0816   -2.0124    5.9176 H   0  0
   -4.9248   -2.2034    5.5562 H   0  0
   -4.2488   -3.8076    3.7209 H   0  0
   -2.6825   -5.0583    2.6144 H   0  0
   -0.9778   -5.7765    5.1148 H   0  0
   -1.1079   -7.8267    4.4910 H   0  0
   -3.9158   -6.6216    4.4699 H   0  0
   -3.0471   -8.0436    5.7931 H   0  0
   -3.5106   -4.4743    6.6795 H   0  0
   -8.0762   -3.8397    1.3941 H   0  0
   -6.3337   -3.3626    1.9422 H   0  0
   -7.0925   -5.6619    2.8277 H   0  0
   -5.9537   -6.2710    4.8489 H   0  0
   -7.8097   -4.4901    6.6105 H   0  0
   -7.5810   -7.2769    6.7092 H   0  0
   -8.7100   -6.7789    4.7527 H   0  0
   -9.8740   -5.6965    6.7356 H   0  0
   -9.5420   -5.1126    3.1153 H   0  0
   -0.4604   -0.4245    1.0025 H   0  0
   -0.1026   -2.0866    2.8033 H   0  0
   -1.4510   -5.2420    0.1766 H   0  0
   -1.7964   -3.5915   -1.6380 H   0  0
   -1.5712    2.4152   -1.6445 H   0  0
   -0.5024    1.6104   -2.8185 H   0  0
   -2.2477    1.2609   -2.8185 H   0  0
   -9.8966   -2.7994    2.4789 H   0  0
  -10.6032    2.3842    5.2263 H   0  0
  -11.2274    1.7471    2.8954 H   0  0
  -10.6081   -0.4873    2.0035 H   0  0
   -8.6662   -1.4381    5.7614 H   0  0
   -9.3222    0.7872    6.6538 H   0  0
  1  2  1  0
  3  2  1  0
  3  4  1  0
  5  4  1  0
  5  6  1  0
  7  5  1  0
  7  8  1  0
  7  9  1  0
  9 10  1  0
  9 11  1  0
 11  3  1  0
 12 13  1  0
 14 13  1  0
 14 15  1  0
 16 15  1  0
 16 17  1  0
 18 16  1  0
 18 19  1  0
 18 20  1  0
 20 21  1  0
 20 22  1  0
 22 14  1  0
 22 23  1  0
 11 17  1  0
  6 24  1  0
 25 26  1  0
 27 28  2  0
 28 29  1  0
 25 29  2  0
 26 24  2  0
 24 27  1  0
 29 30  1  0
 30 32  1  0
 30 31  2  0
 32 33  1  0
 34 23  1  0
 34 12  1  0
 34 35  1  0
 36 37  1  0
 37 38  2  0
 39 40  1  0
 36 40  2  0
 38 35  1  0
 35 39  2  0
  2 41  1  0
  2 42  1  0
  3 43  1  0
  5 44  1  0
  7 45  1  0
  8 46  1  0
  9 47  1  0
 10 48  1  0
 11 49  1  0
 13 50  1  0
 13 51  1  0
 14 52  1  0
 16 53  1  0
 18 54  1  0
 19 55  1  0
 20 56  1  0
 21 57  1  0
 22 58  1  0
 25 59  1  0
 26 60  1  0
 27 61  1  0
 28 62  1  0
 33 63  1  0
 33 64  1  0
 33 65  1  0
 34 66  1  0
 36 67  1  0
 37 68  1  0
 38 69  1  0
 39 70  1  0
 40 71  1  0
M  END
> <Name>
APB2007-17a

$$$$
APB2007-17b
  SciTegic12132405553D

 70 74  0  0  0  0            999 V2000
   -5.2822   -1.3708    0.8033 I   0  0
   -6.0290    0.0873    2.1548 C   0  0
   -6.9543   -0.5555    3.2323 C   0  0  1  0  0  0
   -6.3789   -1.7048    3.9133 O   0  0
   -5.2976   -1.4880    4.8487 C   0  0  1  0  0  0
   -4.1278   -1.1097    4.0896 O   0  0
   -5.7905   -0.4406    5.9380 C   0  0  2  0  0  0
   -6.6706   -1.1958    6.8157 O   0  0
   -6.4760    0.9041    5.3010 C   0  0  2  0  0  0
   -7.2771    2.1524    6.8215 I   0  0
   -7.5701    0.4964    4.2221 C   0  0  2  0  0  0
  -12.3502    2.9744    3.0351 O   0  0
  -11.9003    1.9874    2.0880 C   0  0
  -11.5781    0.6457    2.7896 C   0  0  1  0  0  0
  -10.3788    0.8471    3.5687 O   0  0
   -9.9339   -0.3100    4.3108 C   0  0  1  0  0  0
   -8.6826   -0.0436    4.9868 O   0  0
  -11.0252   -0.6665    5.3542 C   0  0  2  0  0  0
  -10.6208   -1.7850    6.1420 O   0  0
  -12.3714   -0.9560    4.6266 C   0  0  1  0  0  0
  -13.3983   -1.2146    5.5812 O   0  0
  -12.7808    0.2213    3.6926 C   0  0  1  0  0  0
  -13.2336    1.3241    4.5088 O   0  0
   -2.9820   -0.8675    4.7920 C   0  0
   -0.9634   -1.6300    5.9357 C   0  0
   -2.1432   -1.9158    5.2188 C   0  0
   -2.6143    0.4638    5.0544 C   0  0
   -1.4409    0.7464    5.7719 C   0  0
   -0.5955   -0.2932    6.2352 C   0  0
    0.5797    0.0119    6.9821 C   0  0
    0.7773    1.1740    7.4154 O   0  0
    1.5049   -0.9557    7.2675 O   0  0
    2.6906   -0.7856    8.0559 C   0  0
  -13.5067    2.5458    3.7848 C   0  0  1  0  0  0
  -13.8611    3.6360    4.7337 C   0  0
  -14.5521    5.7188    6.5346 C   0  0
  -13.5767    4.7724    6.8935 C   0  0
  -13.2250    3.7475    5.9950 C   0  0
  -14.8367    4.6023    4.3871 C   0  0
  -15.1788    5.6363    5.2791 C   0  0
   -5.2359    0.4892    2.7854 H   0  0
   -6.7305    0.7624    1.6648 H   0  0
   -7.7602   -1.0522    2.6920 H   0  0
   -4.9851   -2.4217    5.3162 H   0  0
   -4.9798   -0.0947    6.5792 H   0  0
   -6.4496   -1.0062    7.7305 H   0  0
   -5.6990    1.2278    4.6085 H   0  0
   -7.9830    1.3145    3.6320 H   0  0
  -12.7506    1.8197    1.4270 H   0  0
  -10.9676    2.3836    1.6864 H   0  0
  -11.3450   -0.1550    2.0877 H   0  0
   -9.7232   -1.0987    3.5885 H   0  0
  -11.1377    0.1254    6.0948 H   0  0
  -10.7000   -1.5659    7.0733 H   0  0
  -12.3025   -1.8808    4.0539 H   0  0
  -13.0412   -1.1247    6.4677 H   0  0
  -13.6358   -0.0367    3.0678 H   0  0
   -0.3278   -2.4530    6.2625 H   0  0
   -2.4073   -2.9492    4.9941 H   0  0
   -3.2423    1.2811    4.6998 H   0  0
   -1.1828    1.7863    5.9718 H   0  0
    2.4317   -0.8228    9.1141 H   0  0
    3.3970   -1.5833    7.8265 H   0  0
    3.1442    0.1786    7.8265 H   0  0
  -14.3162    2.3221    3.0900 H   0  0
  -14.8220    6.5150    7.2284 H   0  0
  -13.0931    4.8333    7.8684 H   0  0
  -12.4523    3.0330    6.2788 H   0  0
  -15.3324    4.5494    3.4178 H   0  0
  -15.9299    6.3741    4.9972 H   0  0
  1  2  1  0
  3  2  1  0
  3  4  1  0
  5  4  1  0
  5  6  1  0
  7  5  1  0
  7  8  1  0
  7  9  1  0
  9 10  1  0
  9 11  1  0
 11  3  1  0
 12 13  1  0
 14 13  1  0
 14 15  1  0
 16 15  1  0
 16 17  1  0
 18 16  1  0
 18 19  1  0
 18 20  1  0
 20 21  1  0
 20 22  1  0
 22 14  1  0
 22 23  1  0
 11 17  1  0
  6 24  1  0
 25 26  1  0
 27 28  2  0
 28 29  1  0
 25 29  2  0
 26 24  2  0
 24 27  1  0
 29 30  1  0
 30 32  1  0
 30 31  2  0
 32 33  1  0
 34 23  1  0
 34 12  1  0
 34 35  1  0
 36 37  1  0
 37 38  2  0
 39 40  1  0
 36 40  2  0
 38 35  1  0
 35 39  2  0
  2 41  1  0
  2 42  1  0
  3 43  1  0
  5 44  1  0
  7 45  1  0
  8 46  1  0
  9 47  1  0
 11 48  1  0
 13 49  1  0
 13 50  1  0
 14 51  1  0
 16 52  1  0
 18 53  1  0
 19 54  1  0
 20 55  1  0
 21 56  1  0
 22 57  1  0
 25 58  1  0
 26 59  1  0
 27 60  1  0
 28 61  1  0
 33 62  1  0
 33 63  1  0
 33 64  1  0
 34 65  1  0
 36 66  1  0
 37 67  1  0
 38 68  1  0
 39 69  1  0
 40 70  1  0
M  END
> <Name>
APB2007-17b

$$$$
APB2007-18
  SciTegic12132405553D

132141  0  0  0  0            999 V2000
   -4.4303   -0.6473    3.9650 O   0  0
   -5.4988   -1.5923    4.1514 C   0  0
   -5.2042   -3.0456    3.6626 C   0  0  1  0  0  0
   -3.8009   -3.2630    3.3945 O   0  0
   -3.5292   -4.5466    2.7697 C   0  0  1  0  0  0
   -2.1325   -4.6388    2.4014 O   0  0
   -3.8731   -5.6868    3.7593 C   0  0  2  0  0  0
   -3.5475   -6.9422    3.1265 O   0  0
   -5.3793   -5.5944    4.1504 C   0  0  1  0  0  0
   -5.6583   -6.6690    5.0701 O   0  0
   -5.7338   -4.1483    4.6462 C   0  0  2  0  0  0
   -9.1314   -1.1815    1.2520 O   0  0
   -8.9575   -2.5415    0.8130 C   0  0
   -9.1892   -3.5324    1.9768 C   0  0  1  0  0  0
   -8.1310   -3.3455    2.9387 O   0  0
   -8.1939   -4.2103    4.0898 C   0  0  1  0  0  0
   -7.1194   -3.9438    5.0198 O   0  0
   -9.5112   -3.9396    4.8583 C   0  0  2  0  0  0
   -9.5901   -4.8632    5.9608 O   0  0
  -10.7373   -4.0907    3.9175 C   0  0  1  0  0  0
  -11.9209   -3.7165    4.6452 O   0  0
  -10.5692   -3.2323    2.6323 C   0  0  1  0  0  0
  -10.6725   -1.8312    2.9695 O   0  0
   -1.8720   -3.9220    1.2638 C   0  0
   -1.3730   -1.8018    0.1733 C   0  0
   -1.5246   -2.5619    1.3457 C   0  0
   -1.9987   -4.5326    0.0002 C   0  0
   -1.8441   -3.7705   -1.1740 C   0  0
   -1.5515   -2.3831   -1.1082 C   0  0
   -1.4618   -1.5834   -2.2832 C   0  0
   -1.5970   -2.0858   -3.4244 O   0  0
   -1.2417   -0.2380   -2.1737 O   0  0
   -1.1891    0.7275   -3.2248 C   0  0
  -10.4193   -0.9390    1.8600 C   0  0  1  0  0  0
  -10.4273    0.4546    2.3699 C   0  0
  -10.4156    3.1088    3.3607 C   0  0
   -9.5075    2.1642    3.8685 C   0  0
   -9.5131    0.8460    3.3772 C   0  0
  -11.3345    1.4178    1.8674 C   0  0
  -11.3294    2.7366    2.3593 C   0  0
  -13.2240   -3.9274    4.2982 C   0  0
  -14.0109   -2.9837    4.5417 O   0  0
  -13.7188   -5.1531    3.7840 C   0  0
  -13.1496   -6.3888    4.1745 C   0  0
  -13.6239   -7.6018    3.6397 C   0  0
  -14.6949   -7.5958    2.7279 C   0  0
  -15.2872   -6.3798    2.3499 C   0  0
  -14.8052   -5.1669    2.8751 C   0  0
  -10.3961   -4.7607    7.0576 C   0  0
  -11.0506   -5.7850    7.3607 O   0  0
  -10.4516   -3.6050    7.8744 C   0  0
  -11.6230   -3.2990    8.6102 C   0  0
   -9.3396   -2.7336    7.9820 C   0  0
   -9.4057   -1.5781    8.7824 C   0  0
  -10.5759   -1.2879    9.5026 C   0  0
  -11.6824   -2.1493    9.4197 C   0  0
   -6.7154   -6.8007    5.9211 C   0  0
   -7.7681   -7.7190    5.6613 C   0  0
   -6.6878   -6.1061    6.9628 O   0  0
   -7.8486   -8.3953    4.4182 C   0  0
   -8.9227   -9.2585    4.1318 C   0  0
   -9.9359   -9.4629    5.0827 C   0  0
   -9.8660   -8.8181    6.3276 C   0  0
   -8.7890   -7.9584    6.6162 C   0  0
   -3.5533    2.9825    4.1276 C   0  0
   -3.4031    1.5693    4.1072 C   0  0
   -2.0897    1.0440    4.0193 C   0  0
   -0.9723    1.8954    3.9264 C   0  0
   -1.1471    3.2897    3.9257 C   0  0
   -2.4374    3.8333    4.0296 C   0  0
   -4.5333    0.7076    4.1817 C   0  0
   -5.6708    1.1879    4.4161 O   0  0
   -0.3445   -7.9838    5.8230 C   0  0
   -0.5176   -9.0862    6.6758 C   0  0
   -1.6703   -9.8811    6.5633 C   0  0
   -2.6488   -9.5747    5.5984 C   0  0
   -2.4910   -8.4687    4.7256 C   0  0
   -1.3201   -7.6814    4.8545 C   0  0
   -3.4713   -8.1590    3.7419 C   0  0
   -4.2780   -9.0275    3.3356 O   0  0
   -5.6207   -1.6372    5.2337 H   0  0
   -6.3032   -1.2019    3.5281 H   0  0
   -5.6742   -3.1538    2.6852 H   0  0
   -4.1076   -4.5845    1.8466 H   0  0
   -3.2607   -5.6702    4.6608 H   0  0
   -6.0715   -5.8157    3.3380 H   0  0
   -5.2865   -4.0246    5.6325 H   0  0
   -9.7436   -2.7060    0.0760 H   0  0
   -7.9106   -2.6146    0.5187 H   0  0
   -9.1257   -4.5726    1.6576 H   0  0
   -8.0646   -5.2184    3.6962 H   0  0
   -9.5202   -2.9461    5.3065 H   0  0
  -10.8954   -5.1300    3.6294 H   0  0
  -11.3797   -3.4098    1.9255 H   0  0
   -1.1134   -0.7467    0.2590 H   0  0
   -1.3727   -2.0962    2.3195 H   0  0
   -2.2172   -5.5983   -0.0692 H   0  0
   -1.9519   -4.2588   -2.1425 H   0  0
   -1.1411    0.2158   -4.1861 H   0  0
   -2.0820    1.3517   -3.1898 H   0  0
   -0.3042    1.3517   -3.1009 H   0  0
  -11.1837   -1.1318    1.1072 H   0  0
  -10.4111    4.1295    3.7432 H   0  0
   -8.7984    2.4541    4.6439 H   0  0
   -8.8040    0.1228    3.7799 H   0  0
  -12.0469    1.1401    1.0906 H   0  0
  -12.0332    3.4695    1.9648 H   0  0
  -12.3341   -6.4066    4.8975 H   0  0
  -13.1622   -8.5451    3.9313 H   0  0
  -15.0659   -8.5336    2.3143 H   0  0
  -16.1215   -6.3773    1.6485 H   0  0
  -15.2768   -4.2310    2.5757 H   0  0
  -12.4902   -3.9570    8.5527 H   0  0
   -8.4196   -2.9554    7.4410 H   0  0
   -8.5492   -0.9069    8.8448 H   0  0
  -10.6254   -0.3947   10.1254 H   0  0
  -12.5877   -1.9254    9.9840 H   0  0
   -7.0705   -8.2490    3.6691 H   0  0
   -8.9700   -9.7703    3.1705 H   0  0
  -10.7748  -10.1205    4.8550 H   0  0
  -10.6471   -8.9849    7.0693 H   0  0
   -8.7450   -7.4723    7.5908 H   0  0
   -4.5458    3.4233    4.2204 H   0  0
   -1.9361   -0.0351    4.0233 H   0  0
    0.0304    1.4742    3.8548 H   0  0
   -0.2827    3.9488    3.8447 H   0  0
   -2.5726    4.9149    4.0341 H   0  0
    0.5470   -7.3630    5.9129 H   0  0
    0.2400   -9.3240    7.4224 H   0  0
   -1.8057  -10.7364    7.2253 H   0  0
   -3.5382  -10.2007    5.5263 H   0  0
   -1.1670   -6.8265    4.1958 H   0  0
  1  2  1  0
  3  2  1  0
  3  4  1  0
  5  4  1  0
  5  6  1  0
  7  5  1  0
  7  8  1  0
  7  9  1  0
  9 10  1  0
  9 11  1  0
 11  3  1  0
 12 13  1  0
 14 13  1  0
 14 15  1  0
 16 15  1  0
 16 17  1  0
 18 16  1  0
 18 19  1  0
 18 20  1  0
 20 21  1  0
 20 22  1  0
 22 14  1  0
 22 23  1  0
 11 17  1  0
  6 24  1  0
 25 26  1  0
 27 28  2  0
 28 29  1  0
 25 29  2  0
 26 24  2  0
 24 27  1  0
 29 30  1  0
 30 32  1  0
 30 31  2  0
 32 33  1  0
 34 23  1  0
 34 12  1  0
 34 35  1  0
 36 37  1  0
 37 38  2  0
 39 40  1  0
 36 40  2  0
 38 35  1  0
 35 39  2  0
 21 41  1  0
 41 42  2  0
 41 43  1  0
 44 45  2  0
 45 46  1  0
 46 47  2  0
 47 48  1  0
 43 44  1  0
 43 48  2  0
 19 49  1  0
 49 50  2  0
 49 51  1  0
 53 54  1  0
 54 55  2  0
 55 56  1  0
 52 56  2  0
 52 51  1  0
 51 53  2  0
 10 57  1  0
 57 58  1  0
 57 59  2  0
 60 61  1  0
 61 62  2  0
 62 63  1  0
 63 64  2  0
 64 58  1  0
 60 58  2  0
 65 66  1  0
 66 67  2  0
 67 68  1  0
 68 69  2  0
 69 70  1  0
 65 70  2  0
  1 71  1  0
 71 66  1  0
 71 72  2  0
 73 74  1  0
 74 75  2  0
 75 76  1  0
 76 77  2  0
 77 78  1  0
 73 78  2  0
  8 79  1  0
 79 77  1  0
 79 80  2  0
  2 81  1  0
  2 82  1  0
  3 83  1  0
  5 84  1  0
  7 85  1  0
  9 86  1  0
 11 87  1  0
 13 88  1  0
 13 89  1  0
 14 90  1  0
 16 91  1  0
 18 92  1  0
 20 93  1  0
 22 94  1  0
 25 95  1  0
 26 96  1  0
 27 97  1  0
 28 98  1  0
 33 99  1  0
 33100  1  0
 33101  1  0
 34102  1  0
 36103  1  0
 37104  1  0
 38105  1  0
 39106  1  0
 40107  1  0
 44108  1  0
 45109  1  0
 46110  1  0
 47111  1  0
 48112  1  0
 52113  1  0
 53114  1  0
 54115  1  0
 55116  1  0
 56117  1  0
 60118  1  0
 61119  1  0
 62120  1  0
 63121  1  0
 64122  1  0
 65123  1  0
 67124  1  0
 68125  1  0
 69126  1  0
 70127  1  0
 73128  1  0
 74129  1  0
 75130  1  0
 76131  1  0
 78132  1  0
M  END
> <Name>
APB2007-18

$$$$
APB2007-21
  SciTegic12132405553D

 97101  0  0  0  0            999 V2000
   -9.0027   -2.4028    2.3768 O   0  0
   -8.2880   -3.4942    1.7723 C   0  0
   -8.0324   -4.6239    2.7977 C   0  0  1  0  0  0
   -7.1201   -4.1399    3.8011 O   0  0
   -6.7391   -5.1188    4.7901 C   0  0  1  0  0  0
   -5.7410   -4.5851    5.6943 O   0  0
   -7.9924   -5.5331    5.6060 C   0  0  2  0  0  0
   -7.6332   -6.6259    6.4721 O   0  0
   -9.1166   -6.0108    4.6419 C   0  0  1  0  0  0
  -10.3090   -6.2090    5.4165 O   0  0
   -9.3764   -5.0115    3.4760 C   0  0  1  0  0  0
  -10.0437   -3.8332    3.9816 O   0  0
   -5.5460   -0.7460    4.1756 O   0  0
   -4.9541   -1.6872    5.0788 C   0  0
   -4.4295   -2.9246    4.2999 C   0  0  1  0  0  0
   -3.1144   -2.6129    3.7888 O   0  0
   -2.5070   -3.6837    3.0267 C   0  0  1  0  0  0
   -1.2598   -3.2406    2.4474 O   0  0
   -2.2636   -4.8907    3.9693 C   0  0  2  0  0  0
   -1.6786   -5.9652    3.2147 O   0  0
   -3.6284   -5.3778    4.5292 C   0  0  1  0  0  0
   -3.3540   -6.4600    5.4337 O   0  0
   -4.4234   -4.2108    5.1966 C   0  0  2  0  0  0
  -10.2488   -2.8077    2.9821 C   0  0  1  0  0  0
  -11.4622   -6.8687    5.1044 C   0  0
  -11.5764   -7.9383    4.0977 C   0  0
  -12.4747   -6.5797    5.7814 O   0  0
   -8.0715   -6.9370    7.7299 C   0  0
   -8.9750   -6.0986    8.5418 C   0  0
   -7.6505   -8.0149    8.2065 O   0  0
   -6.2014    0.3981    4.5246 C   0  0
   -6.2641    0.7727    5.7189 O   0  0
   -6.8608    1.1780    3.4709 C   0  0
   -4.2537   -7.2886    6.0268 C   0  0
   -4.6841   -8.5282    5.3660 C   0  0
   -4.6338   -7.0292    7.1903 O   0  0
   -0.6578   -6.8101    3.5410 C   0  0
    0.0184   -6.8572    4.8514 C   0  0
   -0.3241   -7.6246    2.6531 O   0  0
   -1.4567   -2.3439    1.4261 C   0  0
   -1.9904   -0.4884   -0.6738 C   0  0
   -1.7944   -0.0503    0.6608 C   0  0
   -1.5259   -0.9641    1.6957 C   0  0
   -1.6078   -2.7931    0.0983 C   0  0
   -1.8684   -1.8766   -0.9378 C   0  0
   -2.3110    0.4353   -1.7078 C   0  0
   -2.3897    0.0586   -2.9027 O   0  0
   -2.5491    1.7503   -1.4127 O   0  0
   -2.9199    2.7750   -2.3392 C   0  0
  -10.8287   -1.5952    3.6102 C   0  0
  -11.8777    0.7629    4.7758 C   0  0
  -10.7374    0.1526    5.3280 C   0  0
  -10.2131   -1.0167    4.7471 C   0  0
  -11.9799   -0.9731    3.0691 C   0  0
  -12.4973    0.2010    3.6457 C   0  0
   -8.9594   -3.8851    1.0077 H   0  0
   -7.3214   -3.0785    1.4880 H   0  0
   -7.5494   -5.4854    2.3367 H   0  0
   -6.2655   -5.9360    4.2461 H   0  0
   -8.3351   -4.7213    6.2475 H   0  0
   -8.8683   -6.9794    4.2080 H   0  0
  -10.0670   -5.4294    2.7435 H   0  0
   -4.0956   -1.1699    5.5072 H   0  0
   -5.7697   -2.0155    5.7231 H   0  0
   -5.0346   -3.1241    3.4154 H   0  0
   -3.1650   -3.9123    2.1883 H   0  0
   -1.5534   -4.6445    4.7587 H   0  0
   -4.2690   -5.8117    3.7614 H   0  0
   -3.9499   -3.9824    6.1515 H   0  0
  -10.8957   -3.2473    2.2228 H   0  0
  -11.6792   -8.9003    4.5997 H   0  0
  -12.4523   -7.7584    3.4742 H   0  0
  -10.6824   -7.9474    3.4742 H   0  0
   -8.7831   -6.2767    9.5999 H   0  0
   -8.7993   -5.0476    8.3126 H   0  0
  -10.0100   -6.3524    8.3126 H   0  0
   -7.3138    0.5007    2.7470 H   0  0
   -7.6336    1.8064    3.9137 H   0  0
   -6.1248    1.8064    2.9694 H   0  0
   -4.9422   -9.2714    6.1204 H   0  0
   -5.5555   -8.3245    4.7436 H   0  0
   -3.8740   -8.9083    4.7436 H   0  0
    0.1698   -7.8959    5.1450 H   0  0
    0.9833   -6.3552    4.7806 H   0  0
   -0.5985   -6.3552    5.5968 H   0  0
   -1.8514    1.0125    0.8963 H   0  0
   -1.3707   -0.6012    2.7117 H   0  0
   -1.5227   -3.8559   -0.1287 H   0  0
   -1.9770   -2.2464   -1.9574 H   0  0
   -3.2406    3.6613   -1.7917 H   0  0
   -2.0640    3.0252   -2.9660 H   0  0
   -3.7377    2.4195   -2.9660 H   0  0
  -12.2810    1.6711    5.2236 H   0  0
  -10.2598    0.5860    6.2066 H   0  0
   -9.3250   -1.4769    5.1802 H   0  0
  -12.4740   -1.4032    2.1979 H   0  0
  -13.3795    0.6758    3.2162 H   0  0
  1  2  1  0
  3  2  1  0
  3  4  1  0
  5  4  1  0
  5  6  1  0
  7  5  1  0
  7  8  1  0
  7  9  1  0
  9 10  1  0
  9 11  1  0
 11  3  1  0
 11 12  1  0
 13 14  1  0
 15 14  1  0
 15 16  1  0
 17 16  1  0
 17 18  1  0
 19 17  1  0
 19 20  1  0
 19 21  1  0
 21 22  1  0
 21 23  1  0
 23 15  1  0
 23  6  1  0
 24 12  1  0
 10 25  1  0
 25 26  1  0
 25 27  2  0
  8 28  1  0
 28 29  1  0
 28 30  2  0
 13 31  1  0
 31 33  1  0
 31 32  2  0
 22 34  1  0
 34 35  1  0
 34 36  2  0
 20 37  1  0
 37 38  1  0
 37 39  2  0
 18 40  1  0
 41 42  1  0
 42 43  2  0
 44 45  1  0
 41 45  2  0
 43 40  1  0
 40 44  2  0
 41 46  1  0
 46 48  1  0
 48 49  1  0
 46 47  2  0
 24  1  1  0
 24 50  1  0
 51 52  1  0
 52 53  2  0
 54 55  1  0
 51 55  2  0
 53 50  1  0
 50 54  2  0
  2 56  1  0
  2 57  1  0
  3 58  1  0
  5 59  1  0
  7 60  1  0
  9 61  1  0
 11 62  1  0
 14 63  1  0
 14 64  1  0
 15 65  1  0
 17 66  1  0
 19 67  1  0
 21 68  1  0
 23 69  1  0
 24 70  1  0
 26 71  1  0
 26 72  1  0
 26 73  1  0
 29 74  1  0
 29 75  1  0
 29 76  1  0
 33 77  1  0
 33 78  1  0
 33 79  1  0
 35 80  1  0
 35 81  1  0
 35 82  1  0
 38 83  1  0
 38 84  1  0
 38 85  1  0
 42 86  1  0
 43 87  1  0
 44 88  1  0
 45 89  1  0
 49 90  1  0
 49 91  1  0
 49 92  1  0
 51 93  1  0
 52 94  1  0
 53 95  1  0
 54 96  1  0
 55 97  1  0
M  END
> <Name>
APB2007-21

$$$$
APB2007-A1
  SciTegic12132405553D

 51 52  0  0  0  0            999 V2000
    1.4404   -3.7323    5.2152 O   0  0
    0.4840   -3.9144    4.1785 C   0  0
    0.7116   -2.9015    3.0294 C   0  0  1  0  0  0
    2.0692   -3.0455    2.5499 O   0  0
    2.4187   -2.1090    1.5032 C   0  0  1  0  0  0
    3.8081   -2.2204    1.2012 N   0  0
    1.5470   -2.3822    0.2474 C   0  0  2  0  0  0
    1.8826   -1.4858   -0.8126 O   0  0
    0.0490   -2.2277    0.6252 C   0  0  1  0  0  0
   -0.7764   -2.5894   -0.4797 O   0  0
   -0.3212   -3.0958    1.8665 C   0  0  2  0  0  0
    0.0655    0.7029    5.0058 O   0  0
   -1.2660    0.5105    5.4753 C   0  0
   -2.1754    0.0253    4.3204 C   0  0  1  0  0  0
   -1.6653   -1.2370    3.8410 O   0  0
   -2.3016   -1.7485    2.6497 C   0  0  1  0  0  0
   -1.7169   -3.0129    2.2604 O   0  0
   -3.8132   -1.9759    2.9219 C   0  0  2  0  0  0
   -4.4754   -2.3648    1.7192 O   0  0
   -4.4698   -0.6931    3.5082 C   0  0  1  0  0  0
   -5.8223   -0.9522    3.8821 O   0  0
   -3.6689   -0.1448    4.7240 C   0  0  1  0  0  0
   -3.8045   -1.0404    5.8295 O   0  0
    4.8082   -1.7909    2.0181 C   0  0
    4.5646   -1.3264    3.1588 O   0  0
    6.1983   -1.8472    1.5425 C   0  0
    1.7341   -4.5890    5.5336 H   0  0
    0.6793   -4.9135    3.7892 H   0  0
   -0.4769   -3.6877    4.6406 H   0  0
    0.6383   -1.8799    3.4024 H   0  0
    2.2901   -1.0995    1.8937 H   0  0
    4.1100   -2.6398    0.3334 H   0  0
    1.7623   -3.3627   -0.1773 H   0  0
    2.1293   -1.9895   -1.5917 H   0  0
   -0.1803   -1.1780    0.8081 H   0  0
   -0.8243   -3.5461   -0.5437 H   0  0
   -0.3281   -4.1466    1.5771 H   0  0
    0.6597    0.7888    5.7549 H   0  0
   -1.1958   -0.2919    6.2098 H   0  0
   -1.6063    1.5001    5.7801 H   0  0
   -2.1192    0.7433    3.5022 H   0  0
   -2.0881   -1.0280    1.8601 H   0  0
   -3.9588   -2.8225    3.5929 H   0  0
   -4.5049   -3.3228    1.6655 H   0  0
   -4.5505    0.0717    2.7358 H   0  0
   -5.8927   -0.9657    4.8395 H   0  0
   -4.0786    0.7920    5.1018 H   0  0
   -3.7658   -1.9463    5.5140 H   0  0
    6.8740   -1.8745    2.3974 H   0  0
    6.3398   -2.7436    0.9388 H   0  0
    6.4117   -0.9651    0.9388 H   0  0
  1  2  1  0
  3  2  1  0
  3  4  1  0
  5  4  1  0
  5  6  1  0
  7  5  1  0
  7  8  1  0
  9  7  1  0
  9 10  1  0
 11  9  1  0
 11  3  1  0
 12 13  1  0
 14 13  1  0
 14 15  1  0
 15 16  1  0
 16 17  1  0
 16 18  1  0
 18 19  1  0
 18 20  1  0
 20 21  1  0
 20 22  1  0
 14 22  1  0
 22 23  1  0
 11 17  1  0
  6 24  1  0
 24 25  2  0
 24 26  1  0
  1 27  1  0
  2 28  1  0
  2 29  1  0
  3 30  1  0
  5 31  1  0
  6 32  1  0
  7 33  1  0
  8 34  1  0
  9 35  1  0
 10 36  1  0
 11 37  1  0
 12 38  1  0
 13 39  1  0
 13 40  1  0
 14 41  1  0
 16 42  1  0
 18 43  1  0
 19 44  1  0
 20 45  1  0
 21 46  1  0
 22 47  1  0
 23 48  1  0
 26 49  1  0
 26 50  1  0
 26 51  1  0
M  END
> <Name>
APB2007-A1

$$$$
APB2007-A2
  SciTegic12132405553D

 58 60  0  0  0  0            999 V2000
   -0.3539   -4.3280    5.5711 O   0  0
   -1.2186   -4.5408    4.4600 C   0  0
   -0.8555   -3.5852    3.2956 C   0  0  1  0  0  0
    0.5223   -3.8402    2.9464 O   0  0
    1.0546   -2.9990    1.9015 C   0  0  1  0  0  0
    2.4421   -3.3555    1.8083 N   0  0
    0.2567   -3.2435    0.5885 C   0  0  2  0  0  0
    0.7564   -2.4283   -0.4727 O   0  0
   -1.2594   -2.9669    0.8335 C   0  0  1  0  0  0
   -2.0050   -3.3084   -0.3326 O   0  0
   -1.7904   -3.7776    2.0550 C   0  0  2  0  0  0
   -1.6091    0.1261    5.2370 O   0  0
   -2.9486   -0.1592    5.6274 C   0  0
   -3.7802   -0.6209    4.4063 C   0  0  1  0  0  0
   -3.2332   -1.8657    3.9178 O   0  0
   -3.7912   -2.3517    2.6756 C   0  0  1  0  0  0
   -3.2121   -3.6286    2.3175 O   0  0
   -5.3255   -2.5666    2.8345 C   0  0  2  0  0  0
   -5.9262   -2.8802    1.5769 O   0  0
   -6.0207   -1.3185    3.4510 C   0  0  1  0  0  0
   -7.3829   -1.6162    3.7532 O   0  0
   -5.2905   -0.8161    4.7275 C   0  0  1  0  0  0
   -5.4688   -1.7528    5.7934 O   0  0
    3.4475   -2.7968    2.5600 C   0  0
    3.1659   -1.8273    3.3075 O   0  0
    4.7934   -3.2864    2.5433 C   0  0
    5.1440   -4.4952    1.8858 C   0  0
    5.8364   -2.5833    3.2104 C   0  0
    7.1649   -3.0502    3.2003 C   0  0
    7.4849   -4.2419    2.5276 C   0  0
    6.4731   -4.9654    1.8738 C   0  0
   -0.0765   -5.1751    5.9275 H   0  0
   -1.0146   -5.5609    4.1348 H   0  0
   -2.2118   -4.2716    4.8195 H   0  0
   -0.9147   -2.5437    3.6113 H   0  0
    1.0125   -1.9424    2.1660 H   0  0
    2.7383   -4.0650    1.1533 H   0  0
    0.4219   -4.2534    0.2131 H   0  0
    1.0884   -2.9889   -1.1778 H   0  0
   -1.4382   -1.9010    0.9748 H   0  0
   -2.0555   -4.2638   -0.4116 H   0  0
   -1.8309   -4.8358    1.7966 H   0  0
   -1.0655    0.2419    6.0197 H   0  0
   -2.8699   -0.9983    6.3186 H   0  0
   -3.3531    0.7932    5.9702 H   0  0
   -3.6809    0.1175    3.6106 H   0  0
   -3.5030   -1.6219    1.9189 H   0  0
   -5.5083   -3.4486    3.4484 H   0  0
   -5.9752   -3.8334    1.4745 H   0  0
   -6.0692   -0.5180    2.7128 H   0  0
   -7.5011   -1.6421    4.7055 H   0  0
   -5.7334    0.0997    5.1191 H   0  0
   -5.4109   -2.6464    5.4472 H   0  0
    4.3743   -5.0763    1.3779 H   0  0
    5.6110   -1.6602    3.7445 H   0  0
    7.9458   -2.4889    3.7135 H   0  0
    8.5131   -4.6034    2.5129 H   0  0
    6.7195   -5.8927    1.3566 H   0  0
  1  2  1  0
  3  2  1  0
  3  4  1  0
  5  4  1  0
  5  6  1  0
  7  5  1  0
  7  8  1  0
  9  7  1  0
  9 10  1  0
 11  9  1  0
 11  3  1  0
 12 13  1  0
 14 13  1  0
 14 15  1  0
 15 16  1  0
 16 17  1  0
 16 18  1  0
 18 19  1  0
 18 20  1  0
 20 21  1  0
 20 22  1  0
 14 22  1  0
 22 23  1  0
 11 17  1  0
  6 24  1  0
 24 25  2  0
 24 26  1  0
 28 29  1  0
 29 30  2  0
 30 31  1  0
 27 31  2  0
 27 26  1  0
 26 28  2  0
  1 32  1  0
  2 33  1  0
  2 34  1  0
  3 35  1  0
  5 36  1  0
  6 37  1  0
  7 38  1  0
  8 39  1  0
  9 40  1  0
 10 41  1  0
 11 42  1  0
 12 43  1  0
 13 44  1  0
 13 45  1  0
 14 46  1  0
 16 47  1  0
 18 48  1  0
 19 49  1  0
 20 50  1  0
 21 51  1  0
 22 52  1  0
 23 53  1  0
 27 54  1  0
 28 55  1  0
 29 56  1  0
 30 57  1  0
 31 58  1  0
M  END
> <Name>
APB2007-A2

$$$$
APB2007-A3
  SciTegic12132405553D

 52 53  0  0  0  0            999 V2000
    0.5056    1.3787    3.3026 O   0  0
    0.2800    0.6207    4.4832 C   0  0
    0.7968   -0.8284    4.3137 C   0  0  1  0  0  0
    2.2186   -0.7767    4.0774 O   0  0
    2.8138   -2.0750    3.8572 C   0  0  1  0  0  0
    4.1983   -1.8959    3.3873 N   0  0
    2.7423   -2.8646    5.1884 C   0  0  2  0  0  0
    3.3949   -4.1283    5.0689 O   0  0
    1.2430   -3.0594    5.5577 C   0  0  1  0  0  0
    1.1377   -3.6873    6.8336 O   0  0
    0.4539   -1.7117    5.5613 C   0  0  2  0  0  0
   -1.1141   -1.8363    0.9497 O   0  0
   -2.4946   -1.8773    1.3020 C   0  0
   -2.6934   -2.6035    2.6557 C   0  0  1  0  0  0
   -1.9075   -1.9144    3.6507 O   0  0
   -1.8367   -2.5684    4.9356 C   0  0  1  0  0  0
   -0.9678   -1.8436    5.8398 O   0  0
   -3.2689   -2.6153    5.5367 C   0  0  2  0  0  0
   -3.2678   -3.3114    6.7822 O   0  0
   -4.2565   -3.3002    4.5480 C   0  0  1  0  0  0
   -5.5886   -3.2163    5.0521 O   0  0
   -4.1804   -2.6833    3.1207 C   0  0  1  0  0  0
   -4.7875   -1.3892    3.1239 O   0  0
    4.2511   -1.1815    1.7722 S   0  0
    3.3908   -2.0796    0.7598 O   0  0
    3.6559    0.3068    1.8036 O   0  0
    5.9817   -1.1375    1.1987 C   0  0
    0.6470    0.7838    2.5625 H   0  0
    0.8849    1.1064    5.2490 H   0  0
   -0.8042    0.5811    4.5890 H   0  0
    0.3732   -1.2938    3.4238 H   0  0
    2.2812   -2.5855    3.0548 H   0  0
    4.9309   -2.1904    4.0172 H   0  0
    3.3097   -2.3751    5.9800 H   0  0
    3.5760   -4.4790    5.9440 H   0  0
    0.7803   -3.7588    4.8614 H   0  0
    1.1469   -4.6408    6.7227 H   0  0
    0.7220   -1.1594    6.4620 H   0  0
   -0.5805   -1.8205    1.7476 H   0  0
   -2.7832   -0.8345    1.4344 H   0  0
   -2.9665   -2.4790    0.5252 H   0  0
   -2.3109   -3.6209    2.5747 H   0  0
   -1.3732   -3.5417    4.7745 H   0  0
   -3.6042   -1.6110    5.7958 H   0  0
   -3.2680   -4.2576    6.6199 H   0  0
   -4.0495   -4.3692    4.4975 H   0  0
   -5.5682   -3.2176    6.0118 H   0  0
   -4.7777   -3.2460    2.4033 H   0  0
   -4.9225   -1.1013    4.0297 H   0  0
    6.6496   -1.1205    2.0599 H   0  0
    6.1876   -2.0225    0.5966 H   0  0
    6.1424   -0.2431    0.5966 H   0  0
  1  2  1  0
  3  2  1  0
  3  4  1  0
  5  4  1  0
  5  6  1  0
  7  5  1  0
  7  8  1  0
  9  7  1  0
  9 10  1  0
 11  9  1  0
 11  3  1  0
 12 13  1  0
 14 13  1  0
 14 15  1  0
 15 16  1  0
 16 17  1  0
 16 18  1  0
 18 19  1  0
 18 20  1  0
 20 21  1  0
 20 22  1  0
 14 22  1  0
 22 23  1  0
 11 17  1  0
  6 24  1  0
 24 27  1  0
 24 26  2  0
 24 25  2  0
  1 28  1  0
  2 29  1  0
  2 30  1  0
  3 31  1  0
  5 32  1  0
  6 33  1  0
  7 34  1  0
  8 35  1  0
  9 36  1  0
 10 37  1  0
 11 38  1  0
 12 39  1  0
 13 40  1  0
 13 41  1  0
 14 42  1  0
 16 43  1  0
 18 44  1  0
 19 45  1  0
 20 46  1  0
 21 47  1  0
 22 48  1  0
 23 49  1  0
 27 50  1  0
 27 51  1  0
 27 52  1  0
M  END
> <Name>
APB2007-A3

$$$$
APB2007-A4
  SciTegic12132405553D

 59 61  0  0  0  0            999 V2000
    0.2043   -5.3190    5.6811 O   0  0
   -0.9474   -5.4282    4.8523 C   0  0
   -0.9783   -4.2899    3.8025 C   0  0  1  0  0  0
    0.1586   -4.4488    2.9312 O   0  0
    0.2923   -3.4031    1.9409 C   0  0  1  0  0  0
    1.6012   -3.5337    1.2674 N   0  0
   -0.8913   -3.5345    0.9488 C   0  0  2  0  0  0
   -0.7915   -2.5673   -0.0985 O   0  0
   -2.2331   -3.3596    1.7205 C   0  0  1  0  0  0
   -3.3349   -3.6330    0.8528 O   0  0
   -2.3204   -4.2673    2.9918 C   0  0  2  0  0  0
   -0.2850   -1.2265    6.1111 O   0  0
   -1.4454   -1.0993    6.9301 C   0  0
   -2.7314   -1.2462    6.0808 C   0  0  1  0  0  0
   -2.7034   -2.5413    5.4515 O   0  0
   -3.7222   -2.7663    4.4566 C   0  0  1  0  0  0
   -3.5139   -4.0430    3.7998 O   0  0
   -5.0915   -2.7533    5.1882 C   0  0  2  0  0  0
   -6.1588   -2.9269    4.2576 O   0  0
   -5.2750   -1.4226    5.9815 C   0  0  1  0  0  0
   -6.4754   -1.4574    6.7551 O   0  0
   -4.0526   -1.1105    6.8955 C   0  0  1  0  0  0
   -4.0629   -1.9964    8.0178 O   0  0
    2.9335   -3.1574    2.3692 S   0  0
    2.6994   -1.6823    2.9561 O   0  0
    2.9254   -4.1977    3.5910 O   0  0
    4.4993   -3.2299    1.5504 C   0  0
    4.6972   -4.0537    0.4235 C   0  0
    5.5713   -2.4610    2.0527 C   0  0
    6.8293   -2.5119    1.4280 C   0  0
    7.0248   -3.3343    0.3049 C   0  0
    5.9583   -4.1048   -0.1965 C   0  0
   -0.0615   -5.3442    6.6033 H   0  0
   -0.8240   -6.3722    4.3215 H   0  0
   -1.7932   -5.2880    5.5255 H   0  0
   -0.8456   -3.3208    4.2834 H   0  0
    0.2986   -2.4347    2.4411 H   0  0
    1.5884   -3.8109    0.2962 H   0  0
   -0.8479   -4.4836    0.4146 H   0  0
   -0.7110   -3.0171   -0.9428 H   0  0
   -2.3507   -2.3139    2.0045 H   0  0
   -4.1151   -3.8265    1.3776 H   0  0
   -2.5373   -5.2866    2.6726 H   0  0
    0.4921   -1.3116    6.6682 H   0  0
   -1.3995   -1.9428    7.6190 H   0  0
   -1.4107   -0.0797    7.3139 H   0  0
   -2.7259   -0.4838    5.3017 H   0  0
   -3.6186   -2.0105    3.6781 H   0  0
   -5.1809   -3.6184    5.8453 H   0  0
   -6.9810   -3.0606    4.7349 H   0  0
   -5.4354   -0.6008    5.2837 H   0  0
   -6.2544   -1.4510    7.6892 H   0  0
   -4.1184   -0.1201    7.3459 H   0  0
   -4.0600   -2.9051    7.7082 H   0  0
    3.8746   -4.6516    0.0313 H   0  0
    5.4272   -1.8255    2.9265 H   0  0
    7.6539   -1.9132    1.8148 H   0  0
    8.0019   -3.3745   -0.1765 H   0  0
    6.1095   -4.7427   -1.0673 H   0  0
  1  2  1  0
  3  2  1  0
  3  4  1  0
  5  4  1  0
  5  6  1  0
  7  5  1  0
  7  8  1  0
  9  7  1  0
  9 10  1  0
 11  9  1  0
 11  3  1  0
 12 13  1  0
 14 13  1  0
 14 15  1  0
 15 16  1  0
 16 17  1  0
 16 18  1  0
 18 19  1  0
 18 20  1  0
 20 21  1  0
 20 22  1  0
 14 22  1  0
 22 23  1  0
 11 17  1  0
  6 24  1  0
 24 27  1  0
 24 26  2  0
 24 25  2  0
 29 30  1  0
 30 31  2  0
 31 32  1  0
 28 32  2  0
 28 27  1  0
 27 29  2  0
  1 33  1  0
  2 34  1  0
  2 35  1  0
  3 36  1  0
  5 37  1  0
  6 38  1  0
  7 39  1  0
  8 40  1  0
  9 41  1  0
 10 42  1  0
 11 43  1  0
 12 44  1  0
 13 45  1  0
 13 46  1  0
 14 47  1  0
 16 48  1  0
 18 49  1  0
 19 50  1  0
 20 51  1  0
 21 52  1  0
 22 53  1  0
 23 54  1  0
 28 55  1  0
 29 56  1  0
 30 57  1  0
 31 58  1  0
 32 59  1  0
M  END
> <Name>
APB2007-A4

$$$$
APB2007-B1
  SciTegic12132405553D

 58 60  0  0  0  0            999 V2000
   -4.4826   -2.5509   -3.2087 O   0  0
   -4.9073   -3.3279   -2.0955 C   0  0
   -3.6939   -3.7632   -1.2355 C   0  0  1  0  0  0
   -3.0732   -2.5768   -0.6986 O   0  0
   -1.8836   -2.8588    0.0754 C   0  0  1  0  0  0
   -1.2064   -1.6185    0.3707 O   0  0
   -2.3190   -3.6041    1.3634 C   0  0  2  0  0  0
   -1.1962   -3.8358    2.2159 O   0  0
   -2.9899   -4.9545    0.9718 C   0  0  1  0  0  0
   -3.5269   -5.5871    2.1338 O   0  0
   -4.1075   -4.7774   -0.1082 C   0  0  2  0  0  0
   -1.2613   -5.1247   -3.9631 O   0  0
   -1.9515   -6.2551   -4.4863 C   0  0
   -2.4592   -7.1555   -3.3326 C   0  0  1  0  0  0
   -3.3835   -6.3754   -2.5534 O   0  0
   -3.8353   -6.9737   -1.3222 C   0  0  1  0  0  0
   -4.6663   -6.0375   -0.5914 O   0  0
   -4.6484   -8.2464   -1.6827 C   0  0  2  0  0  0
   -5.0657   -8.9286   -0.4999 O   0  0
   -3.7980   -9.1947   -2.5819 C   0  0  1  0  0  0
   -4.5786  -10.3056   -3.0219 O   0  0
   -3.1779   -8.4551   -3.8039 C   0  0  1  0  0  0
   -4.2114   -8.1590   -4.7454 O   0  0
   -0.5825   -1.0186   -0.7878 C   0  0
    0.1330    0.2246   -0.4127 C   0  0
   -0.5687    1.4462   -0.2918 C   0  0
    0.1125    2.6378    0.0276 C   0  0
    1.5022    2.6187    0.2381 C   0  0
    2.2135    1.4105    0.1273 C   0  0
    1.5322    0.2220   -0.1971 C   0  0
   -4.2109   -3.1343   -3.9210 H   0  0
   -5.5189   -2.6521   -1.4976 H   0  0
   -5.3508   -4.2236   -2.5302 H   0  0
   -2.9238   -4.2282   -1.8509 H   0  0
   -1.1801   -3.4355   -0.5251 H   0  0
   -2.9752   -2.9850    1.9752 H   0  0
   -1.4736   -3.7786    3.1332 H   0  0
   -2.2304   -5.6456    0.6062 H   0  0
   -3.4791   -6.5403    2.0302 H   0  0
   -5.0013   -4.3886    0.3796 H   0  0
   -1.2796   -5.1545   -3.0038 H   0  0
   -2.8198   -5.8442   -5.0015 H   0  0
   -1.2000   -6.8132   -5.0448 H   0  0
   -1.6152   -7.4386   -2.7037 H   0  0
   -2.9653   -7.1647   -0.6939 H   0  0
   -5.5867   -7.9769   -2.1675 H   0  0
   -5.0154   -9.8766   -0.6427 H   0  0
   -3.0063   -9.6467   -1.9843 H   0  0
   -4.9141  -10.7830   -2.2596 H   0  0
   -2.4866   -9.0883   -4.3600 H   0  0
   -5.0161   -7.9285   -4.2753 H   0  0
    0.1713   -1.7294   -1.1266 H   0  0
   -1.3962   -0.7289   -1.4527 H   0  0
   -1.6473    1.4696   -0.4467 H   0  0
   -0.4363    3.5758    0.1120 H   0  0
    2.0281    3.5404    0.4871 H   0  0
    3.2908    1.3954    0.2925 H   0  0
    2.0930   -0.7088   -0.2821 H   0  0
  1  2  1  0
  3  2  1  0
  3  4  1  0
  5  4  1  0
  5  6  1  0
  7  5  1  0
  7  8  1  0
  9  7  1  0
  9 10  1  0
 11  9  1  0
 11  3  1  0
 12 13  1  0
 14 13  1  0
 14 15  1  0
 15 16  1  0
 16 17  1  0
 16 18  1  0
 18 19  1  0
 18 20  1  0
 20 21  1  0
 20 22  1  0
 14 22  1  0
 22 23  1  0
 11 17  1  0
  6 24  1  0
 24 25  1  0
 26 27  2  0
 27 28  1  0
 28 29  2  0
 29 30  1  0
 25 26  1  0
 25 30  2  0
  1 31  1  0
  2 32  1  0
  2 33  1  0
  3 34  1  0
  5 35  1  0
  7 36  1  0
  8 37  1  0
  9 38  1  0
 10 39  1  0
 11 40  1  0
 12 41  1  0
 13 42  1  0
 13 43  1  0
 14 44  1  0
 16 45  1  0
 18 46  1  0
 19 47  1  0
 20 48  1  0
 21 49  1  0
 22 50  1  0
 23 51  1  0
 24 52  1  0
 24 53  1  0
 26 54  1  0
 27 55  1  0
 28 56  1  0
 29 57  1  0
 30 58  1  0
M  END
> <Name>
APB2007-B1

$$$$
APB2007-B2
  SciTegic12132405553D

 61 63  0  0  0  0            999 V2000
   -1.2760   -0.6617   -6.6742 O   0  0
   -2.2758   -0.3623   -5.7085 C   0  0
   -2.1728   -1.3258   -4.5006 C   0  0  1  0  0  0
   -0.9056   -1.1103   -3.8465 O   0  0
   -0.6610   -2.0188   -2.7458 C   0  0  1  0  0  0
    0.7190   -1.9113   -2.3217 O   0  0
   -1.6656   -1.6649   -1.6183 C   0  0  2  0  0  0
   -1.4317   -2.4772   -0.4683 O   0  0
   -3.1180   -1.8772   -2.1427 C   0  0  1  0  0  0
   -4.0653   -1.4411   -1.1680 O   0  0
   -3.3763   -1.1547   -3.5056 C   0  0  2  0  0  0
   -1.9249   -4.7426   -6.3673 O   0  0
   -3.1901   -4.8700   -7.0111 C   0  0
   -4.3338   -4.5583   -6.0121 C   0  0  1  0  0  0
   -4.1755   -3.1960   -5.5760 O   0  0
   -5.0396   -2.7722   -4.5030 C   0  0  1  0  0  0
   -4.6905   -1.4291   -4.0814 O   0  0
   -6.5026   -2.8060   -5.0292 C   0  0  2  0  0  0
   -7.4102   -2.5196   -3.9223 O   0  0
   -6.8280   -4.2273   -5.5877 C   0  0  1  0  0  0
   -8.1274   -4.2481   -6.1788 O   0  0
   -5.7629   -4.7274   -6.6080 C   0  0  1  0  0  0
   -5.9054   -3.9985   -7.8293 O   0  0
    4.0492   -2.7432   -3.9276 C   0  0
    5.7361   -3.5656   -6.0475 C   0  0
    5.3676   -2.2139   -5.9288 C   0  0
    4.5306   -1.8073   -4.8729 C   0  0
    4.4369   -4.0974   -4.0581 C   0  0
    5.2733   -4.5089   -5.1129 C   0  0
    1.6489   -2.3843   -3.3272 C   0  0
    3.1167   -2.3147   -2.8457 C   0  0
   -0.4621   -0.9054   -6.2272 H   0  0
   -2.0388    0.6427   -5.3594 H   0  0
   -3.2223   -0.5547   -6.2135 H   0  0
   -2.1426   -2.3615   -4.8390 H   0  0
   -0.7595   -3.0499   -3.0852 H   0  0
   -1.5082   -0.6514   -1.2494 H   0  0
   -1.4819   -3.4035   -0.7152 H   0  0
   -3.3101   -2.9449   -2.2488 H   0  0
   -3.7162   -1.6018   -0.2883 H   0  0
   -3.5109   -0.0898   -3.3162 H   0  0
   -2.0476   -4.7550   -5.4152 H   0  0
   -3.1955   -4.0996   -7.7822 H   0  0
   -3.2624   -5.9211   -7.2904 H   0  0
   -4.2391   -5.2157   -5.1479 H   0  0
   -4.8574   -3.4180   -3.6440 H   0  0
   -6.6637   -2.0345   -5.7821 H   0  0
   -7.7217   -3.3443   -3.5424 H   0  0
   -6.8995   -4.9343   -4.7611 H   0  0
   -8.7933   -4.2588   -5.4874 H   0  0
   -5.9273   -5.7643   -6.9009 H   0  0
   -5.9908   -4.6139   -8.5612 H   0  0
    6.3820   -3.8829   -6.8661 H   0  0
    5.7295   -1.4839   -6.6528 H   0  0
    4.2524   -0.7570   -4.7864 H   0  0
    4.0861   -4.8342   -3.3355 H   0  0
    5.5621   -5.5558   -5.2058 H   0  0
    1.4018   -3.4367   -3.4665 H   0  0
    1.5454   -1.6856   -4.1574 H   0  0
    3.3430   -1.2655   -2.6558 H   0  0
    3.2283   -3.0493   -2.0482 H   0  0
  1  2  1  0
  3  2  1  0
  3  4  1  0
  5  4  1  0
  5  6  1  0
  7  5  1  0
  7  8  1  0
  9  7  1  0
  9 10  1  0
 11  9  1  0
 11  3  1  0
 12 13  1  0
 14 13  1  0
 14 15  1  0
 15 16  1  0
 16 17  1  0
 16 18  1  0
 18 19  1  0
 18 20  1  0
 20 21  1  0
 20 22  1  0
 14 22  1  0
 22 23  1  0
 11 17  1  0
 25 26  1  0
 26 27  2  0
 28 29  1  0
 25 29  2  0
 27 24  1  0
 24 28  2  0
  6 30  1  0
 30 31  1  0
 31 24  1  0
  1 32  1  0
  2 33  1  0
  2 34  1  0
  3 35  1  0
  5 36  1  0
  7 37  1  0
  8 38  1  0
  9 39  1  0
 10 40  1  0
 11 41  1  0
 12 42  1  0
 13 43  1  0
 13 44  1  0
 14 45  1  0
 16 46  1  0
 18 47  1  0
 19 48  1  0
 20 49  1  0
 21 50  1  0
 22 51  1  0
 23 52  1  0
 25 53  1  0
 26 54  1  0
 27 55  1  0
 28 56  1  0
 29 57  1  0
 30 58  1  0
 30 59  1  0
 31 60  1  0
 31 61  1  0
M  END
> <Name>
APB2007-B2

$$$$
APB2007-B3
  SciTegic12132405553D

 55 57  0  0  0  0            999 V2000
    0.3369   -4.2461    4.2369 O   0  0
   -0.7101   -4.2221    3.2699 C   0  0
   -0.5608   -3.0018    2.3293 C   0  0  1  0  0  0
    0.6989   -3.1294    1.6390 O   0  0
    1.0077   -2.0217    0.7624 C   0  0  1  0  0  0
    2.3772   -2.1386    0.3129 O   0  0
    0.0008   -2.0708   -0.4108 C   0  0  2  0  0  0
    0.2996   -1.0581   -1.3697 O   0  0
   -1.4379   -1.8854    0.1571 C   0  0  1  0  0  0
   -2.3898   -2.0505   -0.8924 O   0  0
   -1.7546   -2.8808    1.3203 C   0  0  2  0  0  0
   -0.3700   -0.0006    5.0380 O   0  0
   -1.6588   -0.0355    5.6446 C   0  0
   -2.7651   -0.1046    4.5655 C   0  0  1  0  0  0
   -2.5527   -1.3102    3.8024 O   0  0
   -3.3945   -1.4700    2.6436 C   0  0  1  0  0  0
   -3.0620   -2.6918    1.9358 O   0  0
   -4.8683   -1.5573    3.1326 C   0  0  2  0  0  0
   -5.7628   -1.6493    2.0255 O   0  0
   -5.2448   -0.3318    4.0144 C   0  0  1  0  0  0
   -6.5478   -0.5088    4.5691 O   0  0
   -4.2099   -0.0932    5.1503 C   0  0  1  0  0  0
   -4.3654   -1.0863    6.1675 O   0  0
    3.2537   -1.9342    1.3509 C   0  0
    4.9268   -1.5078    3.5846 C   0  0
    4.6050   -2.8187    3.1839 C   0  0
    3.7782   -3.0326    2.0664 C   0  0
    3.5996   -0.6209    1.7433 C   0  0
    4.4261   -0.4097    2.8614 C   0  0
   -0.0420   -4.2374    5.1189 H   0  0
   -0.5659   -5.1240    2.6751 H   0  0
   -1.6251   -4.0908    3.8476 H   0  0
   -0.4979   -2.0763    2.9017 H   0  0
    0.9680   -1.0818    1.3131 H   0  0
    0.0987   -2.9906   -0.9875 H   0  0
    0.5389   -0.2473   -0.9148 H   0  0
   -1.5674   -0.8600    0.5032 H   0  0
   -2.5330   -2.9866   -1.0502 H   0  0
   -1.9426   -3.8657    0.8929 H   0  0
    0.3046    0.0176    5.7208 H   0  0
   -1.6812   -0.9674    6.2094 H   0  0
   -1.7539    0.9185    6.1632 H   0  0
   -2.6700    0.7430    3.8868 H   0  0
   -3.1790   -0.6430    1.9671 H   0  0
   -5.0229   -2.4886    3.6776 H   0  0
   -5.9268   -2.5731    1.8225 H   0  0
   -5.3279    0.5606    3.3942 H   0  0
   -6.4914   -0.5011    5.5275 H   0  0
   -4.4012    0.8408    5.6787 H   0  0
   -4.3052   -1.9598    5.7738 H   0  0
    5.5630   -1.3432    4.4542 H   0  0
    4.9971   -3.6702    3.7402 H   0  0
    3.5436   -4.0503    1.7545 H   0  0
    3.2266    0.2345    1.1800 H   0  0
    4.6787    0.6055    3.1676 H   0  0
  1  2  1  0
  3  2  1  0
  3  4  1  0
  5  4  1  0
  5  6  1  0
  7  5  1  0
  7  8  1  0
  9  7  1  0
  9 10  1  0
 11  9  1  0
 11  3  1  0
 12 13  1  0
 14 13  1  0
 14 15  1  0
 15 16  1  0
 16 17  1  0
 16 18  1  0
 18 19  1  0
 18 20  1  0
 20 21  1  0
 20 22  1  0
 14 22  1  0
 22 23  1  0
 11 17  1  0
  6 24  1  0
 25 26  1  0
 26 27  2  0
 28 29  1  0
 25 29  2  0
 27 24  1  0
 24 28  2  0
  1 30  1  0
  2 31  1  0
  2 32  1  0
  3 33  1  0
  5 34  1  0
  7 35  1  0
  8 36  1  0
  9 37  1  0
 10 38  1  0
 11 39  1  0
 12 40  1  0
 13 41  1  0
 13 42  1  0
 14 43  1  0
 16 44  1  0
 18 45  1  0
 19 46  1  0
 20 47  1  0
 21 48  1  0
 22 49  1  0
 23 50  1  0
 25 51  1  0
 26 52  1  0
 27 53  1  0
 28 54  1  0
 29 55  1  0
M  END
> <Name>
APB2007-B3

$$$$
APB2007-B4
  SciTegic12132405553D

 60 62  0  0  0  0            999 V2000
   -0.2483   -4.5910    3.7896 O   0  0
   -1.3069   -4.6551    2.8382 C   0  0
   -1.1520   -3.5430    1.7707 C   0  0  1  0  0  0
    0.1045   -3.7504    1.0938 O   0  0
    0.4167   -2.7304    0.1131 C   0  0  1  0  0  0
    1.7795   -2.8907   -0.3417 O   0  0
   -0.6024   -2.8701   -1.0444 C   0  0  2  0  0  0
   -0.3118   -1.9394   -2.0860 O   0  0
   -2.0383   -2.6384   -0.4892 C   0  0  1  0  0  0
   -2.9958   -2.8915   -1.5152 O   0  0
   -2.3494   -3.5246    0.7598 C   0  0  2  0  0  0
   -0.9048   -0.3603    4.1763 O   0  0
   -2.1900   -0.3030    4.7871 C   0  0
   -3.3055   -0.4575    3.7254 C   0  0  1  0  0  0
   -3.1247   -1.7396    3.0919 O   0  0
   -3.9733   -2.0001    1.9551 C   0  0  1  0  0  0
   -3.6525   -3.2831    1.3628 O   0  0
   -5.4461   -2.0149    2.4493 C   0  0  2  0  0  0
   -6.3453   -2.2016    1.3575 O   0  0
   -5.7890   -0.6965    3.2042 C   0  0  1  0  0  0
   -7.0963   -0.7868    3.7662 O   0  0
   -4.7466   -0.3650    4.3113 C   0  0  1  0  0  0
   -4.9104   -1.2550    5.4171 O   0  0
    2.6720   -2.6322    0.6730 C   0  0
    3.9987   -3.4137    2.5709 C   0  0
    3.1783   -3.6850    1.4589 C   0  0
    3.0501   -1.3082    0.9783 C   0  0
    3.8687   -1.0396    2.0899 C   0  0
    4.3545   -2.0849    2.9178 C   0  0
    5.1680   -1.7931    4.0603 C   0  0
    5.5028   -0.6080    4.3042 O   0  0
    5.6613   -2.8223    5.0071 C   0  0
   -0.6139   -4.6131    4.6770 H   0  0
   -1.1822   -5.6175    2.3419 H   0  0
   -2.2123   -4.4495    3.4092 H   0  0
   -1.0796   -2.5612    2.2386 H   0  0
    0.3934   -1.7474    0.5836 H   0  0
   -0.5089   -3.8354   -1.5420 H   0  0
   -0.0879   -2.4166   -2.8883 H   0  0
   -2.1668   -1.5864   -0.2343 H   0  0
   -3.1010   -3.8390   -1.6280 H   0  0
   -2.5382   -4.5443    0.4244 H   0  0
   -0.2282   -0.3905    4.8567 H   0  0
   -2.2293   -1.1710    5.4452 H   0  0
   -2.2600    0.7013    5.2049 H   0  0
   -3.1971    0.3172    2.9664 H   0  0
   -3.7527   -1.2458    1.1998 H   0  0
   -5.6213   -2.8859    3.0808 H   0  0
   -6.4717   -3.1408    1.2041 H   0  0
   -5.8492    0.1334    2.5001 H   0  0
   -7.0338   -0.7824    4.7241 H   0  0
   -4.9223    0.6171    4.7501 H   0  0
   -4.8645   -2.1624    5.1071 H   0  0
    4.3642   -4.2457    3.1728 H   0  0
    2.9336   -4.7164    1.2050 H   0  0
    2.7069   -0.4860    0.3503 H   0  0
    4.1306   -0.0053    2.3131 H   0  0
    5.4986   -2.4828    6.0300 H   0  0
    5.1215   -3.7550    4.8436 H   0  0
    6.7266   -2.9856    4.8436 H   0  0
  1  2  1  0
  3  2  1  0
  3  4  1  0
  5  4  1  0
  5  6  1  0
  7  5  1  0
  7  8  1  0
  9  7  1  0
  9 10  1  0
 11  9  1  0
 11  3  1  0
 12 13  1  0
 14 13  1  0
 14 15  1  0
 15 16  1  0
 16 17  1  0
 16 18  1  0
 18 19  1  0
 18 20  1  0
 20 21  1  0
 20 22  1  0
 14 22  1  0
 22 23  1  0
 11 17  1  0
  6 24  1  0
 25 26  1  0
 27 28  2  0
 28 29  1  0
 25 29  2  0
 26 24  2  0
 24 27  1  0
 29 30  1  0
 30 32  1  0
 30 31  2  0
  1 33  1  0
  2 34  1  0
  2 35  1  0
  3 36  1  0
  5 37  1  0
  7 38  1  0
  8 39  1  0
  9 40  1  0
 10 41  1  0
 11 42  1  0
 12 43  1  0
 13 44  1  0
 13 45  1  0
 14 46  1  0
 16 47  1  0
 18 48  1  0
 19 49  1  0
 20 50  1  0
 21 51  1  0
 22 52  1  0
 23 53  1  0
 25 54  1  0
 26 55  1  0
 27 56  1  0
 28 57  1  0
 32 58  1  0
 32 59  1  0
 32 60  1  0
M  END
> <Name>
APB2007-B4

$$$$
APB2007-B5
  SciTegic12132405553D

 58 60  0  0  0  0            999 V2000
   -0.7891   -4.6535    3.7609 O   0  0
   -1.7275   -4.5507    2.6938 C   0  0
   -1.2912   -3.4597    1.6840 C   0  0  1  0  0  0
   -0.0072   -3.8394    1.1486 O   0  0
    0.5604   -2.8636    0.2402 C   0  0  1  0  0  0
    1.9298   -3.2150   -0.0612 O   0  0
   -0.3261   -2.8387   -1.0293 C   0  0  2  0  0  0
    0.2145   -1.9472   -2.0033 O   0  0
   -1.7689   -2.4072   -0.6344 C   0  0  1  0  0  0
   -2.6263   -2.5051   -1.7697 O   0  0
   -2.3474   -3.2542    0.5445 C   0  0  2  0  0  0
   -0.8732   -0.3776    4.1946 O   0  0
   -2.1994   -0.1412    4.6568 C   0  0
   -3.1939   -0.1182    3.4711 C   0  0  1  0  0  0
   -3.1259   -1.4049    2.8248 O   0  0
   -3.8644   -1.5245    1.5917 C   0  0  1  0  0  0
   -3.6639   -2.8330    1.0023 O   0  0
   -5.3717   -1.3308    1.9146 C   0  0  2  0  0  0
   -6.1547   -1.3707    0.7226 O   0  0
   -5.6080    0.0139    2.6641 C   0  0  1  0  0  0
   -6.9713    0.1080    3.0708 O   0  0
   -4.6653    0.1759    3.8917 C   0  0  1  0  0  0
   -5.0829   -0.6945    4.9450 O   0  0
    2.7255   -3.1021    1.0555 C   0  0
    3.6957   -4.0924    3.0681 C   0  0
    2.9804   -4.2272    1.8626 C   0  0
    3.2511   -1.8513    1.4406 C   0  0
    3.9643   -1.7188    2.6454 C   0  0
    4.1953   -2.8341    3.4922 C   0  0
    4.9032   -2.6784    4.7278 C   0  0
    5.3736   -1.5579    5.0430 O   0  0
    5.1300   -3.7804    5.6939 O   0  0
   -0.6215   -5.5793    3.9515 H   0  0
   -1.6849   -5.5147    2.1868 H   0  0
   -2.6545   -4.2226    3.1639 H   0  0
   -1.1341   -2.5049    2.1858 H   0  0
    0.6234   -1.8937    0.7336 H   0  0
   -0.3143   -3.8009   -1.5412 H   0  0
    0.6561   -1.2189   -1.5603 H   0  0
   -1.7742   -1.3510   -0.3650 H   0  0
   -2.7812   -3.4300   -1.9748 H   0  0
   -2.6399   -4.2313    0.1600 H   0  0
   -0.2861   -0.4822    4.9469 H   0  0
   -2.4393   -1.0025    5.2804 H   0  0
   -2.1731    0.8572    5.0933 H   0  0
   -2.8877    0.6420    2.7524 H   0  0
   -3.4514   -0.8010    0.8888 H   0  0
   -5.7424   -2.1749    2.4962 H   0  0
   -6.3164   -2.2844    0.4764 H   0  0
   -5.4659    0.8524    1.9823 H   0  0
   -7.0197    0.1113    4.0296 H   0  0
   -4.7484    1.1676    4.3364 H   0  0
   -4.9733   -1.6072    4.6684 H   0  0
    3.8654   -4.9763    3.6830 H   0  0
    2.6219   -5.2087    1.5523 H   0  0
    3.1049   -0.9800    0.8021 H   0  0
    4.3439   -0.7367    2.9273 H   0  0
    5.0601   -3.4406    6.5890 H   0  0
  1  2  1  0
  3  2  1  0
  3  4  1  0
  5  4  1  0
  5  6  1  0
  7  5  1  0
  7  8  1  0
  9  7  1  0
  9 10  1  0
 11  9  1  0
 11  3  1  0
 12 13  1  0
 14 13  1  0
 14 15  1  0
 15 16  1  0
 16 17  1  0
 16 18  1  0
 18 19  1  0
 18 20  1  0
 20 21  1  0
 20 22  1  0
 14 22  1  0
 22 23  1  0
 11 17  1  0
  6 24  1  0
 25 26  1  0
 27 28  2  0
 28 29  1  0
 25 29  2  0
 26 24  2  0
 24 27  1  0
 29 30  1  0
 30 32  1  0
 30 31  2  0
  1 33  1  0
  2 34  1  0
  2 35  1  0
  3 36  1  0
  5 37  1  0
  7 38  1  0
  8 39  1  0
  9 40  1  0
 10 41  1  0
 11 42  1  0
 12 43  1  0
 13 44  1  0
 13 45  1  0
 14 46  1  0
 16 47  1  0
 18 48  1  0
 19 49  1  0
 20 50  1  0
 21 51  1  0
 22 52  1  0
 23 53  1  0
 25 54  1  0
 26 55  1  0
 27 56  1  0
 28 57  1  0
 32 58  1  0
M  END
> <Name>
APB2007-B5

$$$$
APB2007-B6
  SciTegic12132405553D

 63 65  0  0  0  0            999 V2000
   -5.2941    0.7505    1.7376 O   0  0
   -6.4695    0.7052    0.9375 C   0  0
   -6.3927    1.7417   -0.2105 C   0  0  1  0  0  0
   -5.2292    1.4154   -0.9976 O   0  0
   -4.9950    2.3095   -2.1081 C   0  0  1  0  0  0
   -3.7005    2.0299   -2.6910 O   0  0
   -6.1425    2.1066   -3.1264 C   0  0  2  0  0  0
   -5.9277    2.9005   -4.2914 O   0  0
   -7.4943    2.4819   -2.4469 C   0  0  1  0  0  0
   -8.5723    2.1800   -3.3313 O   0  0
   -7.6945    1.7414   -1.0839 C   0  0  2  0  0  0
   -5.7714    5.1441    1.8836 O   0  0
   -6.9888    5.3613    2.5899 C   0  0
   -8.2182    5.1302    1.6729 C   0  0  1  0  0  0
   -8.1361    3.7853    1.1527 O   0  0
   -9.1080    3.4512    0.1379 C   0  0  1  0  0  0
   -8.9057    2.1048   -0.3604 O   0  0
  -10.5210    3.5403    0.7789 C   0  0  2  0  0  0
  -11.5287    3.2972   -0.2011 O   0  0
  -10.7510    4.9327    1.4387 C   0  0  1  0  0  0
  -11.9955    4.9455    2.1374 O   0  0
   -9.5881    5.3327    2.3919 C   0  0  1  0  0  0
   -9.6625    4.5588    3.5888 O   0  0
   -2.6792    2.3573   -1.8273 C   0  0
   -1.2705    3.9589   -0.6547 C   0  0
   -2.2313    3.6983   -1.6648 C   0  0
   -2.1214    1.3236   -1.0501 C   0  0
   -1.1743    1.6127   -0.0556 C   0  0
   -0.7338    2.9384    0.1668 C   0  0
    0.2223    3.2432    1.1771 C   0  0
    0.6502    2.3470    1.9451 O   0  0
    0.6912    4.5229    1.3185 O   0  0
   -2.7091    4.7052   -2.4217 N   0  0
   -3.0858    4.5479   -3.5169 O   0  0
   -2.7686    5.8072   -2.0359 O   0  0
    1.6419    4.9838    2.2801 C   0  0
   -5.5383    0.7411    2.6659 H   0  0
   -6.4692   -0.2900    0.4929 H   0  0
   -7.2770    1.0031    1.6064 H   0  0
   -6.2334    2.7510    0.1690 H   0  0
   -4.9301    3.3344   -1.7429 H   0  0
   -6.1501    1.0905   -3.5209 H   0  0
   -5.7882    2.3268   -5.0484 H   0  0
   -7.5504    3.5597   -2.2941 H   0  0
   -9.3543    1.9609   -2.8195 H   0  0
   -7.9663    0.7088   -1.3029 H   0  0
   -5.0560    5.0164    2.5107 H   0  0
   -7.0013    4.5967    3.3666 H   0  0
   -6.9684    6.4162    2.8638 H   0  0
   -8.1740    5.8191    0.8294 H   0  0
   -8.9344    4.1223   -0.7033 H   0  0
  -10.6536    2.7386    1.5054 H   0  0
  -12.3592    3.0969    0.2368 H   0  0
  -10.8662    5.6943    0.6675 H   0  0
  -11.8315    4.9438    3.0833 H   0  0
   -9.6871    6.3588    2.7460 H   0  0
   -9.6488    3.6248    3.3674 H   0  0
   -0.9312    4.9837   -0.5039 H   0  0
   -2.4255    0.2907   -1.2199 H   0  0
   -0.7766    0.7988    0.5506 H   0  0
    1.2613    4.7993    3.2847 H   0  0
    2.5831    4.4511    2.1446 H   0  0
    1.8067    6.0527    2.1446 H   0  0
  1  2  1  0
  3  2  1  0
  3  4  1  0
  5  4  1  0
  5  6  1  0
  7  5  1  0
  7  8  1  0
  7  9  1  0
  9 10  1  0
  9 11  1  0
 11  3  1  0
 12 13  1  0
 14 13  1  0
 14 15  1  0
 16 15  1  0
 16 17  1  0
 18 16  1  0
 18 19  1  0
 18 20  1  0
 20 21  1  0
 20 22  1  0
 22 14  1  0
 22 23  1  0
 11 17  1  0
  6 24  1  0
 25 26  1  0
 27 28  2  0
 28 29  1  0
 25 29  2  0
 26 24  2  0
 24 27  1  0
 29 30  1  0
 30 32  1  0
 30 31  2  0
 26 33  1  0
 33 35  2  0
 33 34  2  0
 32 36  1  0
  1 37  1  0
  2 38  1  0
  2 39  1  0
  3 40  1  0
  5 41  1  0
  7 42  1  0
  8 43  1  0
  9 44  1  0
 10 45  1  0
 11 46  1  0
 12 47  1  0
 13 48  1  0
 13 49  1  0
 14 50  1  0
 16 51  1  0
 18 52  1  0
 19 53  1  0
 20 54  1  0
 21 55  1  0
 22 56  1  0
 23 57  1  0
 25 58  1  0
 27 59  1  0
 28 60  1  0
 36 61  1  0
 36 62  1  0
 36 63  1  0
M  END
> <Name>
APB2007-B6

$$$$
APB2007-B7
  SciTegic12132405553D

 63 65  0  0  0  0            999 V2000
   -4.7814    1.1888    1.5612 O   0  0
   -5.8358    0.8720    0.6580 C   0  0
   -5.9382    1.9398   -0.4580 C   0  0  1  0  0  0
   -4.7049    1.9449   -1.2075 O   0  0
   -4.6570    2.9644   -2.2352 C   0  0  1  0  0  0
   -3.3190    3.0703   -2.7723 O   0  0
   -5.6847    2.5712   -3.3252 C   0  0  2  0  0  0
   -5.6364    3.4828   -4.4241 O   0  0
   -7.1088    2.5494   -2.6946 C   0  0  1  0  0  0
   -8.0487    2.0520   -3.6463 O   0  0
   -7.1786    1.6951   -1.3875 C   0  0  2  0  0  0
   -6.0467    5.2088    1.7062 O   0  0
   -7.2744    5.1140    2.4250 C   0  0
   -8.4259    4.7260    1.4673 C   0  0  1  0  0  0
   -8.1007    3.4439    0.8994 O   0  0
   -8.9661    2.9951   -0.1614 C   0  0  1  0  0  0
   -8.4725    1.7487   -0.7140 O   0  0
  -10.3843    2.7913    0.4407 C   0  0  2  0  0  0
  -11.3122    2.4003   -0.5697 O   0  0
  -10.8754    4.0911    1.1470 C   0  0  1  0  0  0
  -12.1190    3.8587    1.8097 O   0  0
   -9.8226    4.6453    2.1516 C   0  0  1  0  0  0
   -9.7791    3.8125    3.3125 O   0  0
   -2.4287    3.5116   -1.8196 C   0  0
   -1.4042    5.2884   -0.4873 C   0  0
   -2.2643    4.8842   -1.5287 C   0  0
   -1.6878    2.5636   -1.0895 C   0  0
   -0.8392    2.9682   -0.0454 C   0  0
   -0.6847    4.3383    0.2800 C   0  0
    0.1701    4.7506    1.3408 C   0  0
    0.7355    3.9027    2.0725 O   0  0
    0.3779    6.0813    1.5849 O   0  0
   -2.9470    5.8116   -2.2261 N   0  0
    1.1969    6.6560    2.6077 C   0  0
   -5.0943    1.0948    2.4639 H   0  0
   -5.5390   -0.0697    0.1963 H   0  0
   -6.7454    0.9227    1.2565 H   0  0
   -6.0110    2.9387   -0.0277 H   0  0
   -4.8526    3.9390   -1.7880 H   0  0
   -5.4261    1.6183   -3.7870 H   0  0
   -5.6003    2.9901   -5.2472 H   0  0
   -7.4270    3.5703   -2.4832 H   0  0
   -8.7930    1.6581   -3.1853 H   0  0
   -7.1936    0.6394   -1.6585 H   0  0
   -5.3163    5.2652    2.3265 H   0  0
   -7.1302    4.2943    3.1287 H   0  0
   -7.4674    6.1214    2.7938 H   0  0
   -8.4859    5.4573    0.6613 H   0  0
   -8.9231    3.7245   -0.9702 H   0  0
  -10.3837    1.9463    1.1293 H   0  0
  -11.3525    1.4421   -0.6137 H   0  0
  -11.1087    4.8504    0.4006 H   0  0
  -11.9847    3.8838    2.7599 H   0  0
  -10.1116    5.6196    2.5456 H   0  0
   -9.7891    2.8904    3.0454 H   0  0
   -1.2938    6.3512   -0.2720 H   0  0
   -1.7720    1.5050   -1.3353 H   0  0
   -0.2948    2.2107    0.5185 H   0  0
   -2.4987    6.6780   -2.4876 H   0  0
   -3.9075    5.6410   -2.4876 H   0  0
    1.6629    5.8608    3.1897 H   0  0
    1.9706    7.2725    2.1501 H   0  0
    0.5812    7.2725    3.2627 H   0  0
  1  2  1  0
  3  2  1  0
  3  4  1  0
  5  4  1  0
  5  6  1  0
  7  5  1  0
  7  8  1  0
  7  9  1  0
  9 10  1  0
  9 11  1  0
 11  3  1  0
 12 13  1  0
 14 13  1  0
 14 15  1  0
 16 15  1  0
 16 17  1  0
 18 16  1  0
 18 19  1  0
 18 20  1  0
 20 21  1  0
 20 22  1  0
 22 14  1  0
 22 23  1  0
 11 17  1  0
  6 24  1  0
 25 26  1  0
 27 28  2  0
 28 29  1  0
 25 29  2  0
 26 24  2  0
 24 27  1  0
 29 30  1  0
 30 32  1  0
 30 31  2  0
 26 33  1  0
 32 34  1  0
  1 35  1  0
  2 36  1  0
  2 37  1  0
  3 38  1  0
  5 39  1  0
  7 40  1  0
  8 41  1  0
  9 42  1  0
 10 43  1  0
 11 44  1  0
 12 45  1  0
 13 46  1  0
 13 47  1  0
 14 48  1  0
 16 49  1  0
 18 50  1  0
 19 51  1  0
 20 52  1  0
 21 53  1  0
 22 54  1  0
 23 55  1  0
 25 56  1  0
 27 57  1  0
 28 58  1  0
 33 59  1  0
 33 60  1  0
 34 61  1  0
 34 62  1  0
 34 63  1  0
M  END
> <Name>
APB2007-B7

$$$$
APB2007-C2
  SciTegic12132405553D

 62 64  0  0  0  0            999 V2000
   -5.0705    0.1864    3.7867 N   0  0
   -4.7754   -0.7316    4.7886 C   0  0
   -4.5661   -2.1383    4.1657 C   0  0  1  0  0  0
   -3.4173   -2.0848    3.2981 O   0  0
   -3.1901   -3.3092    2.5621 C   0  0  1  0  0  0
   -2.1794   -3.0909    1.5549 O   0  0
   -2.7567   -4.3869    3.5845 C   0  0  2  0  0  0
   -2.4435   -5.6035    2.9077 O   0  0
   -3.9059   -4.6112    4.6107 C   0  0  1  0  0  0
   -3.4707   -5.5039    5.6367 O   0  0
   -4.4197   -3.2713    5.2410 C   0  0  2  0  0  0
   -7.6239   -2.3100    1.8362 O   0  0
   -8.7391   -2.3177    2.7289 C   0  0
   -8.5096   -3.3576    3.8553 C   0  0  1  0  0  0
   -7.3453   -2.9483    4.5949 O   0  0
   -6.8394   -3.8932    5.5586 C   0  0  1  0  0  0
   -5.5818   -3.4267    6.1110 O   0  0
   -7.9171   -4.0344    6.6655 C   0  0  2  0  0  0
   -7.5120   -4.9944    7.6374 O   0  0
   -9.2833   -4.4429    6.0345 C   0  0  1  0  0  0
  -10.3089   -4.4826    7.0275 O   0  0
   -9.6929   -3.5018    4.8597 C   0  0  1  0  0  0
  -10.0751   -2.2282    5.3851 O   0  0
   -2.6311   -2.2489    0.5701 C   0  0
   -3.8736   -1.8842   -1.5001 C   0  0
   -3.3538   -2.7585   -0.5278 C   0  0
   -2.4041   -0.8625    0.6641 C   0  0
   -2.9235    0.0077   -0.3122 C   0  0
   -3.6831   -0.4818   -1.4040 C   0  0
   -4.2369    0.4116   -2.3652 C   0  0
   -4.9279   -0.0237   -3.3190 O   0  0
   -4.0297    1.7618   -2.2529 O   0  0
   -4.4953    2.7810   -3.1440 C   0  0
   -5.5232    1.2407    3.9826 N   0  0
   -5.9851    2.2903    4.1641 N   0  0
   -3.8276   -0.3921    5.2063 H   0  0
   -5.6682   -0.7577    5.4133 H   0  0
   -5.4081   -2.3920    3.5217 H   0  0
   -4.0889   -3.5787    2.0074 H   0  0
   -1.8230   -4.1197    4.0795 H   0  0
   -2.2663   -6.2921    3.5527 H   0  0
   -4.7323   -5.1296    4.1245 H   0  0
   -3.5941   -6.4104    5.3457 H   0  0
   -3.7031   -2.9445    5.9944 H   0  0
   -6.8085   -2.3045    2.3429 H   0  0
   -8.7501   -1.3261    3.1813 H   0  0
   -9.5846   -2.6517    2.1275 H   0  0
   -8.3247   -4.3286    3.3959 H   0  0
   -6.5998   -4.8258    5.0479 H   0  0
   -8.0047   -3.1127    7.2408 H   0  0
   -7.6610   -4.6413    8.5176 H   0  0
   -9.2292   -5.4727    5.6813 H   0  0
   -9.9098   -4.4672    7.9005 H   0  0
  -10.5873   -3.8540    4.3458 H   0  0
  -10.0650   -2.2617    6.3444 H   0  0
   -4.4316   -2.2991   -2.3395 H   0  0
   -3.5112   -3.8327   -0.6253 H   0  0
   -1.8243   -0.4615    1.4954 H   0  0
   -2.7346    1.0774   -0.2213 H   0  0
   -4.8792    3.6215   -2.5659 H   0  0
   -3.6710    3.1185   -3.7723 H   0  0
   -5.2901    2.3789   -3.7723 H   0  0
  1  2  1  0
  3  2  1  0
  3  4  1  0
  5  4  1  0
  5  6  1  0
  7  5  1  0
  7  8  1  0
  7  9  1  0
  9 10  1  0
  9 11  1  0
 11  3  1  0
 12 13  1  0
 14 13  1  0
 14 15  1  0
 16 15  1  0
 16 17  1  0
 18 16  1  0
 18 19  1  0
 18 20  1  0
 20 21  1  0
 20 22  1  0
 22 14  1  0
 22 23  1  0
 11 17  1  0
  6 24  1  0
 25 26  1  0
 27 28  2  0
 28 29  1  0
 25 29  2  0
 26 24  2  0
 24 27  1  0
 29 30  1  0
 30 32  1  0
 30 31  2  0
 32 33  1  0
  1 34  2  0
 34 35  2  0
  2 36  1  0
  2 37  1  0
  3 38  1  0
  5 39  1  0
  7 40  1  0
  8 41  1  0
  9 42  1  0
 10 43  1  0
 11 44  1  0
 12 45  1  0
 13 46  1  0
 13 47  1  0
 14 48  1  0
 16 49  1  0
 18 50  1  0
 19 51  1  0
 20 52  1  0
 21 53  1  0
 22 54  1  0
 23 55  1  0
 25 56  1  0
 26 57  1  0
 27 58  1  0
 28 59  1  0
 33 60  1  0
 33 61  1  0
 33 62  1  0
M  END
> <Name>
APB2007-C2

$$$$
APB2007-C3s
  SciTegic12132405553D

 62 64  0  0  0  0            999 V2000
   -4.8432    0.6257    3.6596 N   0  0
   -5.9530    0.0710    4.2876 C   0  0
   -5.9543   -1.4685    4.0866 C   0  0  1  0  0  0
   -4.7910   -2.0131    4.7388 O   0  0
   -4.6150   -3.4319    4.5190 C   0  0  1  0  0  0
   -3.3169   -3.8413    5.0001 O   0  0
   -5.7584   -4.1586    5.2668 C   0  0  2  0  0  0
   -5.5966   -5.5717    5.1506 O   0  0
   -7.1255   -3.7129    4.6697 C   0  0  1  0  0  0
   -8.1930   -4.2718    5.4358 O   0  0
   -7.2703   -2.1540    4.5960 C   0  0  2  0  0  0
   -5.2193   -1.6601    0.3144 O   0  0
   -6.3716   -1.0739   -0.2930 C   0  0
   -7.6602   -1.6786    0.3209 C   0  0  1  0  0  0
   -7.6726   -1.3466    1.7208 O   0  0
   -8.6847   -1.9922    2.5186 C   0  0  1  0  0  0
   -8.4836   -1.6972    3.9246 O   0  0
  -10.0573   -1.4615    2.0277 C   0  0  2  0  0  0
  -11.1195   -2.0924    2.7376 O   0  0
  -10.2086   -1.7039    0.4947 C   0  0  1  0  0  0
  -11.4248   -1.1345    0.0089 O   0  0
   -8.9879   -1.1597   -0.3097 C   0  0  1  0  0  0
   -9.0254    0.2696   -0.3170 O   0  0
   -2.3110   -3.3097    4.2330 C   0  0
   -0.8976   -3.3864    2.2434 C   0  0
   -1.8819   -3.9688    3.0631 C   0  0
   -1.7198   -2.0830    4.5911 C   0  0
   -0.7338   -1.5058    3.7696 C   0  0
   -0.3148   -2.1353    2.5710 C   0  0
    0.6558   -1.5233    1.7273 C   0  0
    1.0086   -2.0731    0.6550 O   0  0
    1.2093   -0.3179    2.0727 O   0  0
    2.2074    0.4098    1.3489 C   0  0
   -4.0491    0.0447    3.4316 H   0  0
   -4.8313    1.6095    3.4316 H   0  0
   -5.8077    0.2829    5.3469 H   0  0
   -6.8095    0.4910    3.7603 H   0  0
   -5.8370   -1.7084    3.0298 H   0  0
   -4.5992   -3.6407    3.4493 H   0  0
   -5.7128   -3.9815    6.3414 H   0  0
   -5.5519   -5.9618    6.0266 H   0  0
   -7.2450   -4.1408    3.6743 H   0  0
   -8.0021   -4.1719    6.3713 H   0  0
   -7.4934   -1.7783    5.5946 H   0  0
   -5.3042   -1.6169    1.2697 H   0  0
   -6.3316   -0.0186   -0.0232 H   0  0
   -6.3248   -1.3707   -1.3408 H   0  0
   -7.6218   -2.7618    0.2054 H   0  0
   -8.5675   -3.0724    2.4326 H   0  0
  -10.1767   -0.4072    2.2771 H   0  0
  -10.9704   -2.0038    3.6818 H   0  0
  -10.3312   -2.7701    0.3039 H   0  0
  -11.9762   -0.8764    0.7512 H   0  0
   -9.0392   -1.4300   -1.3644 H   0  0
   -9.0340    0.5941    0.5865 H   0  0
   -0.5822   -3.9118    1.3419 H   0  0
   -2.3128   -4.9325    2.7914 H   0  0
   -2.0264   -1.5785    5.5074 H   0  0
   -0.2879   -0.5565    4.0663 H   0  0
    2.8805    0.9006    2.0519 H   0  0
    2.7751   -0.2777    0.7219 H   0  0
    1.7265    1.1606    0.7219 H   0  0
  1  2  1  0
  3  2  1  0
  3  4  1  0
  5  4  1  0
  5  6  1  0
  7  5  1  0
  7  8  1  0
  7  9  1  0
  9 10  1  0
  9 11  1  0
 11  3  1  0
 12 13  1  0
 14 13  1  0
 14 15  1  0
 16 15  1  0
 16 17  1  0
 18 16  1  0
 18 19  1  0
 18 20  1  0
 20 21  1  0
 20 22  1  0
 22 14  1  0
 22 23  1  0
 11 17  1  0
  6 24  1  0
 25 26  1  0
 27 28  2  0
 28 29  1  0
 25 29  2  0
 26 24  2  0
 24 27  1  0
 29 30  1  0
 30 32  1  0
 30 31  2  0
 32 33  1  0
  1 34  1  0
  1 35  1  0
  2 36  1  0
  2 37  1  0
  3 38  1  0
  5 39  1  0
  7 40  1  0
  8 41  1  0
  9 42  1  0
 10 43  1  0
 11 44  1  0
 12 45  1  0
 13 46  1  0
 13 47  1  0
 14 48  1  0
 16 49  1  0
 18 50  1  0
 19 51  1  0
 20 52  1  0
 21 53  1  0
 22 54  1  0
 23 55  1  0
 25 56  1  0
 26 57  1  0
 27 58  1  0
 28 59  1  0
 33 60  1  0
 33 61  1  0
 33 62  1  0
M  END
> <Name>
APB2007-C3s

$$$$
APB2007-C4
  SciTegic12132405553D

 67 69  0  0  0  0            999 V2000
   -5.3932   -4.8018    3.9877 N   0  0
   -6.4035   -4.6331    2.9898 C   0  0
   -6.0363   -3.5141    1.9753 C   0  0  1  0  0  0
   -4.7012   -3.7441    1.4684 O   0  0
   -4.2426   -2.7266    0.5454 C   0  0  1  0  0  0
   -2.8328   -2.8994    0.2715 O   0  0
   -5.0928   -2.8478   -0.7457 C   0  0  2  0  0  0
   -4.6217   -1.9418   -1.7430 O   0  0
   -6.5780   -2.5466   -0.3895 C   0  0  1  0  0  0
   -7.4106   -2.7398   -1.5337 O   0  0
   -7.0848   -3.4154    0.8086 C   0  0  2  0  0  0
   -5.8772   -0.0446    4.1348 O   0  0
   -7.2075    0.0661    4.6285 C   0  0
   -8.2225   -0.1356    3.4755 C   0  0  1  0  0  0
   -8.0158   -1.4571    2.9337 O   0  0
   -8.7655   -1.7753    1.7415 C   0  0  1  0  0  0
   -8.4355   -3.1010    1.2542 O   0  0
  -10.2767   -1.7234    2.0901 C   0  0  2  0  0  0
  -11.0614   -1.9555    0.9217 O   0  0
  -10.6496   -0.3516    2.7274 C   0  0  1  0  0  0
  -12.0112   -0.3599    3.1531 O   0  0
   -9.7104    0.0174    3.9125 C   0  0  1  0  0  0
  -10.0015   -0.8221    5.0315 O   0  0
   -2.0479   -2.5180    1.3343 C   0  0
   -0.9193   -0.7947    2.6629 C   0  0
   -1.6674   -1.1672    1.4863 C   0  0
   -1.6446   -3.4755    2.2821 C   0  0
   -0.9118   -3.0960    3.4189 C   0  0
   -0.5487   -1.7462    3.6434 C   0  0
    0.1584   -1.3622    4.8179 C   0  0
    0.4795   -0.1655    5.0163 O   0  0
    0.4937   -2.2962    5.7606 O   0  0
    1.1910   -2.0675    6.9882 C   0  0
   -5.6060   -5.1446    5.2875 C   0  0
   -6.7608   -5.3000    5.7503 O   0  0
   -4.4648   -5.3773    6.1879 C   0  0
   -4.4218   -4.6635    3.7481 H   0  0
   -6.4192   -5.5796    2.4493 H   0  0
   -7.2850   -4.3057    3.5410 H   0  0
   -5.9741   -2.5514    2.4827 H   0  0
   -4.3177   -1.7499    1.0236 H   0  0
   -4.9728   -3.8208   -1.2219 H   0  0
   -4.2244   -1.1776   -1.3190 H   0  0
   -6.6913   -1.4882   -0.1548 H   0  0
   -7.5251   -3.6799   -1.6910 H   0  0
   -7.2740   -4.4182    0.4257 H   0  0
   -5.2652   -0.0955    4.8728 H   0  0
   -7.3211   -0.7619    5.3283 H   0  0
   -7.2955    1.0937    4.9812 H   0  0
   -8.0224    0.5908    2.6878 H   0  0
   -8.4490   -1.0745    0.9690 H   0  0
  -10.5439   -2.5452    2.7545 H   0  0
  -11.1553   -2.9005    0.7818 H   0  0
  -10.6112    0.4331    1.9718 H   0  0
  -12.0465   -0.3601    4.1124 H   0  0
   -9.9010    1.0241    4.2846 H   0  0
   -9.9328   -1.7425    4.7674 H   0  0
   -0.6235    0.2431    2.8168 H   0  0
   -1.9412   -0.4386    0.7231 H   0  0
   -1.9031   -4.5240    2.1340 H   0  0
   -0.6203   -3.8613    4.1383 H   0  0
    1.4493   -3.0239    7.4429 H   0  0
    2.1014   -1.5022    6.7890 H   0  0
    0.5537   -1.5022    7.6682 H   0  0
   -4.7990   -5.3092    7.2231 H   0  0
   -4.0530   -6.3695    6.0035 H   0  0
   -3.6974   -4.6255    6.0035 H   0  0
  1  2  1  0
  3  2  1  0
  3  4  1  0
  5  4  1  0
  5  6  1  0
  7  5  1  0
  7  8  1  0
  7  9  1  0
  9 10  1  0
  9 11  1  0
 11  3  1  0
 12 13  1  0
 14 13  1  0
 14 15  1  0
 16 15  1  0
 16 17  1  0
 18 16  1  0
 18 19  1  0
 18 20  1  0
 20 21  1  0
 20 22  1  0
 22 14  1  0
 22 23  1  0
 11 17  1  0
  6 24  1  0
 25 26  1  0
 27 28  2  0
 28 29  1  0
 25 29  2  0
 26 24  2  0
 24 27  1  0
 29 30  1  0
 30 32  1  0
 30 31  2  0
 32 33  1  0
  1 34  1  0
 34 35  2  0
 34 36  1  0
  1 37  1  0
  2 38  1  0
  2 39  1  0
  3 40  1  0
  5 41  1  0
  7 42  1  0
  8 43  1  0
  9 44  1  0
 10 45  1  0
 11 46  1  0
 12 47  1  0
 13 48  1  0
 13 49  1  0
 14 50  1  0
 16 51  1  0
 18 52  1  0
 19 53  1  0
 20 54  1  0
 21 55  1  0
 22 56  1  0
 23 57  1  0
 25 58  1  0
 26 59  1  0
 27 60  1  0
 28 61  1  0
 33 62  1  0
 33 63  1  0
 33 64  1  0
 36 65  1  0
 36 66  1  0
 36 67  1  0
M  END
> <Name>
APB2007-C4

$$$$
APB2007-C5
  SciTegic12132405553D

 60 62  0  0  0  0            999 V2000
   -6.4508   -4.5749    2.9832 C   0  0
   -6.0654   -3.2840    2.2229 C   0  0  1  0  0  0
   -4.6877   -3.4165    1.8240 O   0  0
   -4.1579   -2.2507    1.1521 C   0  0  1  0  0  0
   -2.7277   -2.3833    1.0051 O   0  0
   -4.8655   -2.1537   -0.2203 C   0  0  2  0  0  0
   -4.3231   -1.0854   -0.9949 O   0  0
   -6.3918   -1.9480    0.0120 C   0  0  1  0  0  0
   -7.0792   -1.9984   -1.2368 O   0  0
   -6.9999   -3.0039    0.9937 C   0  0  2  0  0  0
   -6.1776   -0.5396    5.0302 O   0  0
   -7.5515   -0.4790    5.4029 C   0  0
   -8.4369   -0.3742    4.1356 C   0  0  1  0  0  0
   -8.2080   -1.5628    3.3541 O   0  0
   -8.8025   -1.5767    2.0410 C   0  0  1  0  0  0
   -8.4016   -2.7732    1.3259 O   0  0
  -10.3463   -1.5439    2.2209 C   0  0  2  0  0  0
  -10.9974   -1.4983    0.9503 O   0  0
  -10.7649   -0.3170    3.0926 C   0  0  1  0  0  0
  -12.1691   -0.3329    3.3532 O   0  0
   -9.9617   -0.2390    4.4248 C   0  0  1  0  0  0
  -10.4155   -1.2654    5.3058 O   0  0
   -2.0965   -2.3233    2.2244 C   0  0
   -1.1722   -1.0144    4.0693 C   0  0
   -1.7462   -1.0806    2.7858 C   0  0
   -1.8194   -3.5014    2.9445 C   0  0
   -1.2444   -3.4357    4.2265 C   0  0
   -0.9228   -2.1911    4.8229 C   0  0
   -0.3819   -2.1311    6.1388 C   0  0
   -0.1209   -1.0286    6.6759 O   0  0
   -0.1536   -3.2793    6.8503 O   0  0
    0.4011   -3.3880    8.1667 C   0  0
   -6.3968   -4.3942    4.0567 H   0  0
   -7.4663   -4.8656    2.7142 H   0  0
   -5.7607   -5.3747    2.7142 H   0  0
   -6.1095   -2.4165    2.8814 H   0  0
   -4.2997   -1.3675    1.7750 H   0  0
   -4.6600   -3.0286   -0.8371 H   0  0
   -3.9789   -0.4076   -0.4086 H   0  0
   -6.5688   -0.9428    0.3946 H   0  0
   -7.2180   -2.9142   -1.4890 H   0  0
   -7.1312   -3.9416    0.4537 H   0  0
   -5.6325   -0.5637    5.8201 H   0  0
   -7.7597   -1.4347    5.8840 H   0  0
   -7.6543    0.4485    5.9661 H   0  0
   -8.1289    0.4947    3.5540 H   0  0
   -8.4021   -0.7371    1.4727 H   0  0
  -10.7031   -2.4771    2.6567 H   0  0
  -11.1565   -2.3927    0.6400 H   0  0
  -10.6209    0.6016    2.5239 H   0  0
  -12.3186   -0.3346    4.3014 H   0  0
  -10.1605    0.6810    4.9744 H   0  0
  -10.2912   -0.9844    6.2154 H   0  0
   -0.9175   -0.0395    4.4850 H   0  0
   -1.9205   -0.1636    2.2230 H   0  0
   -2.0517   -4.4719    2.5061 H   0  0
   -1.0454   -4.3620    4.7653 H   0  0
    0.5116   -4.4402    8.4287 H   0  0
    1.3771   -2.9032    8.1909 H   0  0
   -0.2632   -2.9032    8.8821 H   0  0
  2  1  1  0
  2  3  1  0
  4  3  1  0
  4  5  1  0
  6  4  1  0
  6  7  1  0
  6  8  1  0
  8  9  1  0
  8 10  1  0
 10  2  1  0
 11 12  1  0
 13 12  1  0
 13 14  1  0
 15 14  1  0
 15 16  1  0
 17 15  1  0
 17 18  1  0
 17 19  1  0
 19 20  1  0
 19 21  1  0
 21 13  1  0
 21 22  1  0
 10 16  1  0
  5 23  1  0
 24 25  1  0
 26 27  2  0
 27 28  1  0
 24 28  2  0
 25 23  2  0
 23 26  1  0
 28 29  1  0
 29 31  1  0
 29 30  2  0
 31 32  1  0
  1 33  1  0
  1 34  1  0
  1 35  1  0
  2 36  1  0
  4 37  1  0
  6 38  1  0
  7 39  1  0
  8 40  1  0
  9 41  1  0
 10 42  1  0
 11 43  1  0
 12 44  1  0
 12 45  1  0
 13 46  1  0
 15 47  1  0
 17 48  1  0
 18 49  1  0
 19 50  1  0
 20 51  1  0
 21 52  1  0
 22 53  1  0
 24 54  1  0
 25 55  1  0
 26 56  1  0
 27 57  1  0
 32 58  1  0
 32 59  1  0
 32 60  1  0
M  END
> <Name>
APB2007-C5

$$$$
APB2007-D1
  SciTegic12132405553D

 62 64  0  0  0  0            999 V2000
   -4.5809   -4.4639    4.1538 O   0  0
   -5.8292   -4.6634    3.4942 C   0  0
   -6.1105   -3.4861    2.5290 C   0  0  1  0  0  0
   -5.1044   -3.5034    1.5017 O   0  0
   -5.1756   -2.3754    0.6017 C   0  0  1  0  0  0
   -3.9998   -2.3534   -0.2359 O   0  0
   -6.4704   -2.5345   -0.2293 C   0  0  2  0  0  0
   -6.5641   -1.4841   -1.1888 O   0  0
   -7.7016   -2.5128    0.7249 C   0  0  1  0  0  0
   -8.8946   -2.7848   -0.0115 O   0  0
   -7.5540   -3.5164    1.9184 C   0  0  2  0  0  0
   -5.2543   -0.5571    4.8671 N   0  0
   -6.1995   -0.6242    5.8864 C   0  0
   -7.6138   -0.7611    5.2621 C   0  0  1  0  0  0
   -7.6430   -2.0093    4.5421 O   0  0
   -8.7898   -2.2256    3.6949 C   0  0  1  0  0  0
   -8.6243   -3.4337    2.9070 O   0  0
  -10.0210   -2.3406    4.6332 C   0  0  2  0  0  0
  -11.2122   -2.5147    3.8687 O   0  0
  -10.1275   -1.0666    5.5288 C   0  0  1  0  0  0
  -11.2043   -1.1960    6.4544 O   0  0
   -8.7943   -0.7588    6.2785 C   0  0  1  0  0  0
   -8.5860   -1.7239    7.3118 O   0  0
   -2.8722   -2.0830    0.4988 C   0  0
   -2.5020   -0.7485    0.7619 C   0  0
   -2.0942   -3.1334    1.0242 C   0  0
   -0.9772   -2.8495    1.8312 C   0  0
   -0.6132   -1.5133    2.1378 C   0  0
   -1.3884   -0.4700    1.5724 C   0  0
    0.4910   -1.2348    2.9898 C   0  0
    0.7937   -0.0511    3.2814 O   0  0
    1.2289   -2.2645    3.5099 O   0  0
    2.3822   -2.1609    4.3480 C   0  0
   -4.1011   -0.6049    5.0207 N   0  0
   -2.9484   -0.6527    5.1515 N   0  0
   -4.7142   -4.4852    5.1043 H   0  0
   -5.6965   -5.5660    2.8976 H   0  0
   -6.5782   -4.6386    4.2857 H   0  0
   -5.9895   -2.5366    3.0504 H   0  0
   -5.1406   -1.4444    1.1674 H   0  0
   -6.4483   -3.4395   -0.8364 H   0  0
   -6.6393   -0.6416   -0.7346 H   0  0
   -7.8462   -1.5040    1.1116 H   0  0
   -9.6169   -2.9495    0.5990 H   0  0
   -7.7573   -4.5228    1.5525 H   0  0
   -5.9660   -1.5420    6.4260 H   0  0
   -6.1339    0.3382    6.3940 H   0  0
   -7.7672    0.0693    4.5728 H   0  0
   -8.8490   -1.4171    2.9662 H   0  0
   -9.9713   -3.2475    5.2359 H   0  0
  -11.9596   -2.6240    4.4612 H   0  0
  -10.4115   -0.2092    4.9185 H   0  0
  -10.8626   -1.1549    7.3506 H   0  0
   -8.8354    0.1855    6.8214 H   0  0
   -8.6601   -2.6075    6.9440 H   0  0
   -3.0798    0.0721    0.3366 H   0  0
   -2.3571   -4.1684    0.8058 H   0  0
   -0.3856   -3.6763    2.2244 H   0  0
   -1.1223    0.5693    1.7651 H   0  0
    2.0753   -2.1885    5.3935 H   0  0
    3.0551   -2.9940    4.1448 H   0  0
    2.8958   -1.2212    4.1448 H   0  0
  1  2  1  0
  3  2  1  0
  3  4  1  0
  5  4  1  0
  5  6  1  0
  7  5  1  0
  7  8  1  0
  7  9  1  0
  9 10  1  0
  9 11  1  0
 11  3  1  0
 12 13  1  0
 14 13  1  0
 14 15  1  0
 16 15  1  0
 16 17  1  0
 18 16  1  0
 18 19  1  0
 18 20  1  0
 20 21  1  0
 20 22  1  0
 22 14  1  0
 22 23  1  0
 11 17  1  0
  6 24  1  0
 26 27  1  0
 27 28  2  0
 28 29  1  0
 25 29  2  0
 25 24  1  0
 24 26  2  0
 28 30  1  0
 30 32  1  0
 30 31  2  0
 32 33  1  0
 34 35  2  0
 12 34  2  0
  1 36  1  0
  2 37  1  0
  2 38  1  0
  3 39  1  0
  5 40  1  0
  7 41  1  0
  8 42  1  0
  9 43  1  0
 10 44  1  0
 11 45  1  0
 13 46  1  0
 13 47  1  0
 14 48  1  0
 16 49  1  0
 18 50  1  0
 19 51  1  0
 20 52  1  0
 21 53  1  0
 22 54  1  0
 23 55  1  0
 25 56  1  0
 26 57  1  0
 27 58  1  0
 29 59  1  0
 33 60  1  0
 33 61  1  0
 33 62  1  0
M  END
> <Name>
APB2007-D1

$$$$
APB2007-D2
  SciTegic12132405553D

 62 64  0  0  0  0            999 V2000
   -4.7603   -4.5641    4.0696 O   0  0
   -6.0710   -4.5387    3.5096 C   0  0
   -6.2628   -3.3025    2.5971 C   0  0  1  0  0  0
   -5.3106   -3.3936    1.5179 O   0  0
   -5.3404   -2.2701    0.6053 C   0  0  1  0  0  0
   -4.2098   -2.3348   -0.2950 O   0  0
   -6.6902   -2.3274   -0.1513 C   0  0  2  0  0  0
   -6.7537   -1.3111   -1.1505 O   0  0
   -7.8533   -2.1747    0.8735 C   0  0  1  0  0  0
   -9.0999   -2.3574    0.2068 O   0  0
   -7.7332   -3.1841    2.0617 C   0  0  2  0  0  0
   -5.0832   -0.4113    5.0672 N   0  0
   -6.1272   -0.4007    6.0997 C   0  0
   -7.5454   -0.4694    5.4747 C   0  0  1  0  0  0
   -7.6332   -1.6783    4.6952 O   0  0
   -8.8216   -1.8179    3.8918 C   0  0  1  0  0  0
   -8.7527   -3.0222    3.0900 O   0  0
  -10.0400   -1.9026    4.8533 C   0  0  2  0  0  0
  -11.2617   -1.9787    4.1181 O   0  0
  -10.0743   -0.6785    5.8151 C   0  0  1  0  0  0
  -11.1132   -0.8396    6.7826 O   0  0
   -8.7044   -0.4488    6.5194 C   0  0  1  0  0  0
   -8.5112   -1.4453    7.5263 O   0  0
   -3.0268   -2.1409    0.3763 C   0  0
   -2.5596   -0.8369    0.6424 C   0  0
   -2.2885   -3.2459    0.8454 C   0  0
   -1.1312   -3.0476    1.6232 C   0  0
   -0.6737   -1.7416    1.9341 C   0  0
   -1.4028   -0.6424    1.4168 C   0  0
    0.4814   -1.5401    2.7432 C   0  0
    0.8813   -0.3808    3.0135 O   0  0
    1.1731   -2.6111    3.2468 O   0  0
    2.3279   -2.5539    4.0901 C   0  0
   -4.8215   -4.5629    5.0276 H   0  0
   -6.1261   -5.4290    2.8833 H   0  0
   -6.7394   -4.4311    4.3640 H   0  0
   -6.0149   -2.3847    3.1302 H   0  0
   -5.1993   -1.3422    1.1596 H   0  0
   -6.7822   -3.2430   -0.7355 H   0  0
   -6.8075   -0.4504   -0.7286 H   0  0
   -7.8811   -1.1542    1.2554 H   0  0
   -9.7986   -2.4598    0.8571 H   0  0
   -8.0425   -4.1686    1.7106 H   0  0
   -4.7330   -1.2896    4.7121 H   0  0
   -4.7152    0.4597    4.7121 H   0  0
   -5.9787   -1.3180    6.6694 H   0  0
   -6.0360    0.5675    6.5921 H   0  0
   -7.6751    0.3776    4.8010 H   0  0
   -8.8499   -0.9827    3.1920 H   0  0
  -10.0113   -2.8385    5.4113 H   0  0
  -12.0006   -2.0248    4.7293 H   0  0
  -10.3579    0.2183    5.2642 H   0  0
  -10.7402   -0.7817    7.6653 H   0  0
   -8.6910    0.4878    7.0770 H   0  0
   -8.5893   -1.0426    8.3942 H   0  0
   -3.0958    0.0258    0.2472 H   0  0
   -2.6139   -4.2581    0.6055 H   0  0
   -0.5828   -3.9156    1.9892 H   0  0
   -1.0666    0.3745    1.6189 H   0  0
    2.0162   -2.5693    5.1345 H   0  0
    2.9675   -3.4133    3.8891 H   0  0
    2.8795   -1.6355    3.8891 H   0  0
  1  2  1  0
  3  2  1  0
  3  4  1  0
  5  4  1  0
  5  6  1  0
  7  5  1  0
  7  8  1  0
  7  9  1  0
  9 10  1  0
  9 11  1  0
 11  3  1  0
 12 13  1  0
 14 13  1  0
 14 15  1  0
 16 15  1  0
 16 17  1  0
 18 16  1  0
 18 19  1  0
 18 20  1  0
 20 21  1  0
 20 22  1  0
 22 14  1  0
 22 23  1  0
 11 17  1  0
  6 24  1  0
 26 27  1  0
 27 28  2  0
 28 29  1  0
 25 29  2  0
 25 24  1  0
 24 26  2  0
 28 30  1  0
 30 32  1  0
 30 31  2  0
 32 33  1  0
  1 34  1  0
  2 35  1  0
  2 36  1  0
  3 37  1  0
  5 38  1  0
  7 39  1  0
  8 40  1  0
  9 41  1  0
 10 42  1  0
 11 43  1  0
 12 44  1  0
 12 45  1  0
 13 46  1  0
 13 47  1  0
 14 48  1  0
 16 49  1  0
 18 50  1  0
 19 51  1  0
 20 52  1  0
 21 53  1  0
 22 54  1  0
 23 55  1  0
 25 56  1  0
 26 57  1  0
 27 58  1  0
 29 59  1  0
 33 60  1  0
 33 61  1  0
 33 62  1  0
M  END
> <Name>
APB2007-D2

$$$$
APB2007-D3
  SciTegic12132405553D

 67 69  0  0  0  0            999 V2000
   -4.6076   -4.8712    4.3417 O   0  0
   -5.7116   -4.9620    3.4500 C   0  0
   -5.6721   -3.8280    2.3990 C   0  0  1  0  0  0
   -4.4100   -3.9017    1.7046 O   0  0
   -4.2168   -2.8578    0.7230 C   0  0  1  0  0  0
   -2.8539   -2.8951    0.2391 O   0  0
   -5.2429   -3.0884   -0.4145 C   0  0  2  0  0  0
   -5.0590   -2.1319   -1.4550 O   0  0
   -6.6843   -2.9843    0.1686 C   0  0  1  0  0  0
   -7.6485   -3.2930   -0.8376 O   0  0
   -6.8853   -3.9141    1.4092 C   0  0  2  0  0  0
   -6.4537    0.3423    5.8941 N   0  0
   -6.8071   -1.0211    5.6620 C   0  0
   -7.9220   -1.1428    4.5811 C   0  0  1  0  0  0
   -7.7787   -2.4266    3.9396 O   0  0
   -8.5629   -2.5885    2.7379 C   0  0  1  0  0  0
   -8.1982   -3.8047    2.0386 O   0  0
  -10.0474   -2.6250    3.1853 C   0  0  2  0  0  0
  -10.9011   -2.7736    2.0530 O   0  0
  -10.4047   -1.3198    3.9576 C   0  0  1  0  0  0
  -11.7383   -1.4092    4.4632 O   0  0
   -9.3884   -0.9989    5.0994 C   0  0  1  0  0  0
   -9.6420   -1.8641    6.2079 O   0  0
   -1.9598   -2.5226    1.2151 C   0  0
   -1.6888   -1.1562    1.4416 C   0  0
   -1.3480   -3.5119    2.0086 C   0  0
   -0.5114   -3.1549    3.0794 C   0  0
   -0.2421   -1.7963    3.3804 C   0  0
   -0.8301   -0.8096    2.5494 C   0  0
    0.5889   -1.4347    4.4816 C   0  0
    0.8647   -0.2336    4.7212 O   0  0
    1.1154   -2.3946    5.3044 O   0  0
    1.9343   -2.1713    6.4598 C   0  0
   -5.5409    0.7678    6.8080 C   0  0
   -5.0068   -0.0212    7.6233 O   0  0
   -5.1328    2.1796    6.8349 C   0  0
   -4.9249   -4.8973    5.2474 H   0  0
   -5.5728   -5.9084    2.9273 H   0  0
   -6.5909   -4.8088    4.0757 H   0  0
   -5.6793   -2.8490    2.8782 H   0  0
   -4.3235   -1.8828    1.1986 H   0  0
   -5.0721   -4.0408   -0.9163 H   0  0
   -4.9120   -2.5882   -2.2868 H   0  0
   -6.8973   -1.9496    0.4373 H   0  0
   -8.4723   -3.5567   -0.4212 H   0  0
   -6.9779   -4.9434    1.0630 H   0  0
   -6.8925    1.0781    5.3592 H   0  0
   -5.9018   -1.4787    5.2628 H   0  0
   -7.2199   -1.3663    6.6098 H   0  0
   -7.7614   -0.3575    3.8425 H   0  0
   -8.3164   -1.7877    2.0407 H   0  0
  -10.2507   -3.5119    3.7854 H   0  0
  -11.0359   -3.7071    1.8742 H   0  0
  -10.4362   -0.4752    3.2692 H   0  0
  -11.7174   -1.4078    5.4230 H   0  0
   -9.5358   -0.0013    5.5133 H   0  0
   -9.5766   -2.7781    5.9219 H   0  0
   -2.1245   -0.4003    0.7883 H   0  0
   -1.5240   -4.5655    1.7915 H   0  0
   -0.0649   -3.9433    3.6854 H   0  0
   -0.6175    0.2372    2.7667 H   0  0
    2.2344   -3.1299    6.8832 H   0  0
    2.8216   -1.6072    6.1727 H   0  0
    1.3694   -1.6072    7.2019 H   0  0
   -5.0372    2.5106    7.8690 H   0  0
   -4.1744    2.2905    6.3278 H   0  0
   -5.8843    2.7847    6.3278 H   0  0
  1  2  1  0
  3  2  1  0
  3  4  1  0
  5  4  1  0
  5  6  1  0
  7  5  1  0
  7  8  1  0
  7  9  1  0
  9 10  1  0
  9 11  1  0
 11  3  1  0
 12 13  1  0
 14 13  1  0
 14 15  1  0
 16 15  1  0
 16 17  1  0
 18 16  1  0
 18 19  1  0
 18 20  1  0
 20 21  1  0
 20 22  1  0
 22 14  1  0
 22 23  1  0
 11 17  1  0
  6 24  1  0
 26 27  1  0
 27 28  2  0
 28 29  1  0
 25 29  2  0
 25 24  1  0
 24 26  2  0
 28 30  1  0
 30 32  1  0
 30 31  2  0
 32 33  1  0
 12 34  1  0
 34 36  1  0
 34 35  2  0
  1 37  1  0
  2 38  1  0
  2 39  1  0
  3 40  1  0
  5 41  1  0
  7 42  1  0
  8 43  1  0
  9 44  1  0
 10 45  1  0
 11 46  1  0
 12 47  1  0
 13 48  1  0
 13 49  1  0
 14 50  1  0
 16 51  1  0
 18 52  1  0
 19 53  1  0
 20 54  1  0
 21 55  1  0
 22 56  1  0
 23 57  1  0
 25 58  1  0
 26 59  1  0
 27 60  1  0
 29 61  1  0
 33 62  1  0
 33 63  1  0
 33 64  1  0
 36 65  1  0
 36 66  1  0
 36 67  1  0
M  END
> <Name>
APB2007-D3

$$$$
APB2007-D4
  DSViewer          3D                             0

 60 62  0  0  0  0  0  0  0  0999 V2000
   -5.4788   -4.2863    4.5614 O   0  0
   -6.4306   -4.3438    3.5037 C   0  0
   -6.1497   -3.2410    2.4526 C   0  0  1  0  0  0
   -4.8358   -3.4675    1.9030 O   0  0
   -4.4200   -2.4644    0.9436 C   0  0  1  0  0  0
   -3.0185   -2.6388    0.6251 O   0  0
   -5.3210   -2.6186   -0.3077 C   0  0  2  0  0  0
   -4.9091   -1.7266   -1.3424 O   0  0
   -6.8005   -2.3510    0.0989 C   0  0  1  0  0  0
   -7.6590   -2.6134   -1.0103 O   0  0
   -7.2430   -3.2083    1.3284 C   0  0  2  0  0  0
   -7.4328    0.0550    5.3389 C   0  0
   -8.4348   -0.0965    4.1703 C   0  0  1  0  0  0
   -8.2080   -1.3862    3.5677 O   0  0
   -8.9398   -1.6356    2.3496 C   0  0  1  0  0  0
   -8.5938   -2.9293    1.7964 O   0  0
  -10.4568   -1.6224    2.6886 C   0  0  2  0  0  0
  -11.2432   -1.8052    1.5119 O   0  0
  -10.8587   -0.2944    3.3948 C   0  0  1  0  0  0
  -12.2191   -0.3550    3.8252 O   0  0
   -9.9277    0.0324    4.5973 C   0  0  1  0  0  0
  -10.2292   -0.8400    5.6889 O   0  0
   -2.2218   -2.3679    1.7135 C   0  0
   -1.8402   -1.0430    2.0114 C   0  0
   -1.8141   -3.4093    2.5722 C   0  0
   -1.0859   -3.1207    3.7429 C   0  0
   -0.7303   -1.7886    4.0736 C   0  0
   -1.1089   -0.7577    3.1785 C   0  0
   -0.0181   -1.4944    5.2680 C   0  0
    0.2865   -0.3120    5.5601 O   0  0
    0.3333   -2.4992    6.1282 O   0  0
    1.0204   -2.3454    7.3763 C   0  0
   -5.2404   -5.1777    4.8263 H   0  0
   -6.2662   -5.3110    3.0287 H   0  0
   -7.3888   -4.1237    3.9744 H   0  0
   -6.1040   -2.2592    2.9240 H   0  0
   -4.4828   -1.4751    1.3970 H   0  0
   -5.1969   -3.5970   -0.7717 H   0  0
   -4.6074   -2.2329   -2.1001 H   0  0
   -6.9368   -1.2918    0.3174 H   0  0
   -7.7497   -3.5620   -1.1274 H   0  0
   -7.4144   -4.2310    0.9925 H   0  0
   -7.1319   -0.9321    5.6899 H   0  0
   -6.5545    0.6020    4.9959 H   0  0
   -7.9058    0.6020    6.1545 H   0  0
   -8.2350    0.6672    3.4187 H   0  0
   -8.6216   -0.8886    1.6224 H   0  0
  -10.7072   -2.4853    3.3057 H   0  0
  -11.3551   -2.7438    1.3444 H   0  0
  -10.8376    0.5268    2.6783 H   0  0
  -12.2514   -0.3565    4.7846 H   0  0
  -10.1227    1.0263    5.0001 H   0  0
  -10.1496   -1.7523    5.4008 H   0  0
   -2.1126   -0.2333    1.3344 H   0  0
   -2.0630   -4.4424    2.3299 H   0  0
   -0.7939   -3.9387    4.4015 H   0  0
   -0.8323    0.2748    3.3919 H   0  0
    1.2478   -3.3282    7.7893 H   0  0
    1.9476   -1.7956    7.2152 H   0  0
    0.3884   -1.7956    8.0736 H   0  0
  1  2  1  0  0  0
  3  2  1  0  0  0
  3  4  1  0  0  0
  5  4  1  0  0  0
  5  6  1  0  0  0
  7  5  1  0  0  0
  7  8  1  0  0  0
  7  9  1  0  0  0
  9 10  1  0  0  0
  9 11  1  0  0  0
 11  3  1  0  0  0
 13 12  1  0  0  0
 13 14  1  0  0  0
 15 14  1  0  0  0
 15 16  1  0  0  0
 17 15  1  0  0  0
 17 18  1  0  0  0
 17 19  1  0  0  0
 19 20  1  0  0  0
 19 21  1  0  0  0
 21 13  1  0  0  0
 21 22  1  0  0  0
 11 16  1  0  0  0
  6 23  1  0  0  0
 25 26  1  0  0  0
 26 27  2  0  0  0
 27 28  1  0  0  0
 24 28  2  0  0  0
 24 23  1  0  0  0
 23 25  2  0  0  0
 27 29  1  0  0  0
 29 31  1  0  0  0
 29 30  2  0  0  0
 31 32  1  0  0  0
  1 33  1  0  0  0
  2 34  1  0  0  0
  2 35  1  0  0  0
  3 36  1  0  0  0
  5 37  1  0  0  0
  7 38  1  0  0  0
  8 39  1  0  0  0
  9 40  1  0  0  0
 10 41  1  0  0  0
 11 42  1  0  0  0
 12 43  1  0  0  0
 12 44  1  0  0  0
 12 45  1  0  0  0
 13 46  1  0  0  0
 15 47  1  0  0  0
 17 48  1  0  0  0
 18 49  1  0  0  0
 19 50  1  0  0  0
 20 51  1  0  0  0
 21 52  1  0  0  0
 22 53  1  0  0  0
 24 54  1  0  0  0
 25 55  1  0  0  0
 26 56  1  0  0  0
 28 57  1  0  0  0
 32 58  1  0  0  0
 32 59  1  0  0  0
 32 60  1  0  0  0
M  END
> <Clean Energy>
-0.174642

$$$$
ALBB2007_2
  SciTegic12132405553D

 49 49  0  0  0  0            999 V2000
    4.2894   -0.3392   -1.0054 C   0  0
    5.2849    0.6460   -0.4008 C   0  0
    4.9625    1.6281    0.6118 O   0  0
    6.4320    0.6536   -0.8603 O   0  0
    3.6279    1.6310    1.2159 C   0  0
    3.4201    0.4338    2.1959 C   0  0  1  0  0  0
    4.4290    0.5128    3.1978 O   0  0
    4.3368   -0.5507    4.1531 C   0  0  2  0  0  0
    7.9367   -0.4194    5.0968 C   0  0
    2.9688   -0.4588    4.9155 C   0  0  1  0  0  0
    3.5399   -2.4345    8.1092 C   0  0
    1.8286   -0.6259    3.9039 C   0  0  2  0  0  0
   -0.9570   -1.8353    3.1218 C   0  0
    1.9973    0.5296    2.8317 C   0  0  2  0  0  0
    0.0018   -0.5519   -0.3081 C   0  0
    6.6428   -0.5284    4.3526 C   0  0
    5.4397   -0.4201    5.0464 O   0  0
    6.6502   -0.7230    3.1311 O   0  0
    3.6118   -1.3880    7.0417 C   0  0
    2.8026   -1.5149    5.8997 O   0  0
    4.3433   -0.4051    7.2046 O   0  0
   -0.6872   -0.9867    4.3272 C   0  0
    0.6033   -0.5146    4.7303 O   0  0
   -1.6333   -0.7747    5.0932 O   0  0
    0.9702   -0.5730    0.8356 C   0  0
    0.9881    0.5378    1.7505 O   0  0
    1.7201   -1.5486    0.9630 O   0  0
    4.7088   -0.8066   -1.9073 H   0  0
    3.3388    0.1723   -1.2207 H   0  0
    4.0695   -1.1158   -0.2590 H   0  0
    3.5254    2.5495    1.8095 H   0  0
    2.8619    1.6281    0.4282 H   0  0
    3.5265   -0.5118    1.6674 H   0  0
    4.4038   -1.5204    3.6407 H   0  0
    8.7923   -0.5062    4.4116 H   0  0
    7.9692   -1.2064    5.8642 H   0  0
    7.9571    0.5394    5.6348 H   0  0
    2.8798    0.5193    5.4078 H   0  0
    4.0961   -2.1197    9.0039 H   0  0
    3.9634   -3.3672    7.7093 H   0  0
    2.4854   -2.6433    8.3409 H   0  0
    1.9138   -1.6186    3.4420 H   0  0
   -1.3059   -1.1755    2.3181 H   0  0
   -1.7704   -2.5413    3.3394 H   0  0
   -0.0485   -2.3515    2.7844 H   0  0
    1.9327    1.4870    3.3664 H   0  0
   -0.5163   -1.5202   -0.3625 H   0  0
    0.5729   -0.4465   -1.2421 H   0  0
   -0.7067    0.2821   -0.2035 H   0  0
  3  5  1  0
  6  5  1  0
  6  7  1  0
  7  8  1  0
  8 17  1  0
  8 10  1  0
 10 20  1  0
 10 12  1  0
 12 23  1  0
 12 14  1  0
  6 14  1  0
 14 26  1  0
  9 16  1  0
 16 17  1  0
 16 18  2  0
 11 19  1  0
 19 20  1  0
 19 21  2  0
 13 22  1  0
 22 23  1  0
 22 24  2  0
 15 25  1  0
 25 26  1  0
 25 27  2  0
  1  2  1  0
  2  3  1  0
  2  4  2  0
  1 28  1  0
  1 29  1  0
  1 30  1  0
  5 31  1  0
  5 32  1  0
  6 33  1  0
  8 34  1  0
  9 35  1  0
  9 36  1  0
  9 37  1  0
 10 38  1  0
 11 39  1  0
 11 40  1  0
 11 41  1  0
 12 42  1  0
 13 43  1  0
 13 44  1  0
 13 45  1  0
 14 46  1  0
 15 47  1  0
 15 48  1  0
 15 49  1  0
M  END
> <Name>
ALBB2007_2

> <Clean Energy>
75.8712005615234

$$$$
ALBB2007_3
  DSViewer          3D                             0

 43 43  0  0  0  0  0  0  0  0999 V2000
    4.5472    5.7963   -1.9722 C   0  0
    4.8945    5.2581   -3.3545 C   0  0
    5.1201    3.8735   -3.6247 O   0  0
    4.9892    6.0609   -4.2893 O   0  0
    4.9905    2.9998   -2.4848 C   0  0
    5.2657    1.5249   -2.9456 C   0  0  1  0  0  0
    6.6067    1.3981   -3.5235 O   0  0
    7.6974    1.6073   -2.5565 C   0  0  2  0  0  0
    9.3952    1.4751   -3.4799 Br  0  0
    7.6569    0.5282   -1.4458 C   0  0  1  0  0  0
    8.3485   -1.8963    0.2256 C   0  0
    6.2512    0.6552   -0.6981 C   0  0  2  0  0  0
    6.9534    3.4478    1.7446 C   0  0
    5.1172    0.4566   -1.8019 C   0  0  2  0  0  0
    4.1629   -2.0362   -0.3562 C   0  0
    8.1295   -1.9305   -1.2819 C   0  0
    7.8436   -0.7687   -2.0989 O   0  0
    8.2527   -3.0180   -1.8552 O   0  0
    6.9860    2.1406    1.0188 C   0  0
    6.1098    1.9399   -0.0612 O   0  0
    7.7596    1.2523    1.3959 O   0  0
    4.8227   -2.0405   -1.7303 C   0  0
    5.2364   -0.8521   -2.4516 O   0  0
    4.9665   -3.1309   -2.2933 O   0  0
    4.4262    6.8885   -2.0033 H   0  0
    5.3417    5.5152   -1.2619 H   0  0
    3.6221    5.3158   -1.6176 H   0  0
    5.7031    3.3041   -1.7157 H   0  0
    3.9690    3.0587   -2.0819 H   0  0
    4.5141    1.3029   -3.7149 H   0  0
    7.6151    2.6015   -2.1027 H   0  0
    8.4890    0.6984   -0.7521 H   0  0
    8.7547   -2.8546    0.5780 H   0  0
    7.3816   -1.7048    0.7133 H   0  0
    9.0094   -1.0572    0.4892 H   0  0
    6.1579   -0.1077    0.0733 H   0  0
    7.9661    3.7167    2.0775 H   0  0
    6.3347    3.3224    2.6447 H   0  0
    6.5034    4.2273    1.1111 H   0  0
    4.1132    0.5492   -1.3683 H   0  0
    3.7457   -3.0265   -0.1261 H   0  0
    3.3913   -1.2537   -0.3133 H   0  0
    4.9238   -1.7756    0.3937 H   0  0
  3  5  1  0  0  0
  6  5  1  0  0  0
  6  7  1  0  0  0
  7  8  1  0  0  0
  8  9  1  0  0  0
  8 10  1  0  0  0
 10 17  1  0  0  0
 10 12  1  0  0  0
 12 20  1  0  0  0
 12 14  1  0  0  0
  6 14  1  0  0  0
 14 23  1  0  0  0
 11 16  1  0  0  0
 16 17  1  0  0  0
 16 18  2  0  0  0
 13 19  1  0  0  0
 19 20  1  0  0  0
 19 21  2  0  0  0
 15 22  1  0  0  0
 22 23  1  0  0  0
 22 24  2  0  0  0
  1  2  1  0  0  0
  2  3  1  0  0  0
  2  4  2  0  0  0
  1 25  1  0  0  0
  1 26  1  0  0  0
  1 27  1  0  0  0
  5 28  1  0  0  0
  5 29  1  0  0  0
  6 30  1  0  0  0
  8 31  1  0  0  0
 10 32  1  0  0  0
 11 33  1  0  0  0
 11 34  1  0  0  0
 11 35  1  0  0  0
 12 36  1  0  0  0
 13 37  1  0  0  0
 13 38  1  0  0  0
 13 39  1  0  0  0
 14 40  1  0  0  0
 15 41  1  0  0  0
 15 42  1  0  0  0
 15 43  1  0  0  0
M  END
> <Clean Energy>
0.499185

$$$$
ALBB2007_4
  SciTegic12132405553D

 56 57  0  0  0  0            999 V2000
   -1.0066    5.4917   -4.4442 C   0  0
   -4.3603    5.4663   -2.6772 C   0  0
   -4.2991    4.0991   -1.9536 C   0  0  1  0  0  0
   -3.4639    4.2330   -0.7974 O   0  0
   -3.3104    2.9729   -0.1077 C   0  0  1  0  0  0
   -2.3422    3.1287    0.9506 O   0  0
   -4.7106    2.5118    0.4495 C   0  0  1  0  0  0
   -3.9386    0.0610    3.2282 C   0  0
   -5.6435    2.3394   -0.7628 C   0  0  2  0  0  0
   -9.0999    2.2854    0.9330 C   0  0
   -5.7244    3.6742   -1.5422 C   0  0  2  0  0  0
   -7.1960    2.4091   -4.8765 C   0  0
   -1.0079    3.5435    0.5742 C   0  0
   -0.0177    3.6357    1.6546 C   0  0
   -0.6210    3.8400   -0.6823 C   0  0
    0.7546    4.2592   -0.9501 C   0  0
    1.6380    4.3388    0.0412 C   0  0
    1.2342    4.0079    1.4004 C   0  0
    2.9486    4.7407   -0.2214 N   0  3
    3.8300    4.8078    0.7649 O   0  5
    3.2704    5.0219   -1.3162 O   0  0
   -4.0470    1.3026    2.4011 C   0  0
   -4.6629    1.2395    1.1404 O   0  0
   -3.6529    2.3774    2.8675 O   0  0
   -7.7337    2.7309    0.5160 C   0  0
   -6.9778    1.8874   -0.3508 O   0  0
   -7.3088    3.8155    0.9331 O   0  0
   -6.2825    2.5750   -3.7036 C   0  0
   -6.6173    3.5447   -2.7047 O   0  0
   -5.2721    1.8645   -3.6333 O   0  0
   -2.3979    5.1355   -4.0183 C   0  0
   -3.0356    5.9242   -3.0414 O   0  0
   -2.9677    4.1725   -4.5462 O   0  0
   -0.5205    4.6355   -4.9328 H   0  0
   -0.4333    5.8532   -3.5764 H   0  0
   -1.0709    6.3224   -5.1618 H   0  0
   -4.8014    6.1959   -1.9846 H   0  0
   -4.9888    5.3903   -3.5757 H   0  0
   -3.8628    3.3426   -2.6138 H   0  0
   -2.9353    2.2153   -0.8107 H   0  0
   -5.1119    3.2735    1.1280 H   0  0
   -3.0669    0.1241    3.8951 H   0  0
   -3.9066   -0.8273    2.5819 H   0  0
   -4.8392   -0.0051    3.8568 H   0  0
   -5.2129    1.5716   -1.4140 H   0  0
   -9.6077    3.0694    1.5130 H   0  0
   -9.0006    1.3689    1.5320 H   0  0
   -9.6767    2.0118    0.0373 H   0  0
   -6.1331    4.4480   -0.8831 H   0  0
   -6.8123    1.6441   -5.5670 H   0  0
   -7.3058    3.3785   -5.3821 H   0  0
   -8.1957    2.1358   -4.5073 H   0  0
   -0.3028    3.3961    2.6474 H   0  0
   -1.2918    3.7878   -1.4955 H   0  0
    1.0475    4.5024   -1.9402 H   0  0
    1.9397    4.0651    2.1905 H   0  0
 32  2  1  0
  3  2  1  0
  3  4  1  0
  4  5  1  0
  5  6  1  0
  5  7  1  0
  7 23  1  0
  7  9  1  0
  9 26  1  0
  9 11  1  0
  3 11  1  0
 11 29  1  0
  6 13  1  0
 15 16  1  0
 16 17  2  0
 17 18  1  0
 14 18  2  0
 14 13  1  0
 13 15  2  0
 17 19  1  0
  1 31  1  0
 31 32  1  0
 31 33  2  0
 12 28  1  0
 28 29  1  0
 28 30  2  0
 10 25  1  0
 25 26  1  0
 25 27  2  0
  8 22  1  0
 22 23  1  0
 22 24  2  0
 19 20  1  0
 19 21  2  0
  1 34  1  0
  1 35  1  0
  1 36  1  0
  2 37  1  0
  2 38  1  0
  3 39  1  0
  5 40  1  0
  7 41  1  0
  8 42  1  0
  8 43  1  0
  8 44  1  0
  9 45  1  0
 10 46  1  0
 10 47  1  0
 10 48  1  0
 11 49  1  0
 12 50  1  0
 12 51  1  0
 12 52  1  0
 14 53  1  0
 15 54  1  0
 16 55  1  0
 18 56  1  0
M  CHG  2  19   1  20  -1
M  END
> <Name>
ALBB2007_4

> <Clean Energy>
48.8909

$$$$
ALBB2007_5
  SciTegic12132405553D

 36 37  0  0  0  0            999 V2000
   -2.7084    1.7073    2.8162 O   0  0
   -3.8755    1.8027    3.6350 C   0  0
   -3.5942    1.1451    4.9876 C   0  0  1  0  0  0
   -2.4920    1.8228    5.6188 O   0  0
   -2.1568    1.2182    6.8862 C   0  0  1  0  0  0
   -1.0389    1.9039    7.4706 O   0  0
   -3.3569    1.3212    7.8407 C   0  0  2  0  0  0
   -3.0288    0.7217    9.0910 O   0  0
   -4.5379    0.5880    7.2113 C   0  0  1  0  0  0
   -5.6763    0.6695    8.0668 O   0  0
   -4.8457    1.2438    5.8708 C   0  0  2  0  0  0
   -5.9354    0.5705    5.2452 O   0  0
    0.1801    1.8628    6.7212 C   0  0
    0.3382    1.1449    5.4146 C   0  0
    1.2311    2.5032    7.2305 C   0  0
    2.5142    2.5092    6.5278 C   0  0
    2.6472    1.8714    5.3676 C   0  0
    1.5120    1.1601    4.7881 C   0  0
    3.8741    1.8813    4.7027 N   0  3
    4.0061    1.2460    3.5484 O   0  5
    4.7905    2.4529    5.1665 O   0  0
   -1.9529    2.1654    3.2634 H   0  0
   -4.1321    2.8598    3.7903 H   0  0
   -4.7139    1.2886    3.1443 H   0  0
   -3.3340    0.0883    4.8353 H   0  0
   -1.9043    0.1589    6.7356 H   0  0
   -3.6166    2.3779    7.9948 H   0  0
   -2.7963   -0.2284    8.9453 H   0  0
   -4.2721   -0.4660    7.0516 H   0  0
   -5.4650    0.2478    8.9358 H   0  0
   -5.1047    2.3006    6.0253 H   0  0
   -5.6970   -0.3800    5.1092 H   0  0
   -0.4685    0.6207    4.9726 H   0  0
    1.1361    3.0145    8.1545 H   0  0
    3.3413    3.0245    6.9458 H   0  0
    1.6224    0.6523    3.8639 H   0  0
  1  2  1  0
  3  2  1  0
  3  4  1  0
  4  5  1  0
  5  6  1  0
  5  7  1  0
  7  8  1  0
  7  9  1  0
  9 10  1  0
  9 11  1  0
  3 11  1  0
 11 12  1  0
  6 13  1  0
 15 16  1  0
 16 17  2  0
 17 18  1  0
 14 18  2  0
 14 13  1  0
 13 15  2  0
 17 19  1  0
 19 20  1  0
 19 21  2  0
  1 22  1  0
  2 23  1  0
  2 24  1  0
  3 25  1  0
  5 26  1  0
  7 27  1  0
  8 28  1  0
  9 29  1  0
 10 30  1  0
 11 31  1  0
 12 32  1  0
 14 33  1  0
 15 34  1  0
 16 35  1  0
 18 36  1  0
M  CHG  2  19   1  20  -1
M  END
> <Name>
ALBB2007_5

> <Clean Energy>
-7.65564

$$$$
ALBB2007_6
  SciTegic12132405553D

 36 37  0  0  0  0            999 V2000
   -0.3780   -5.6176    1.1502 O   0  0
   -0.0764   -5.4714    2.5391 C   0  0
   -0.7684   -4.2155    3.0730 C   0  0  1  0  0  0
   -2.1901   -4.3481    2.8882 O   0  0
   -2.8930   -3.1712    3.3407 C   0  0  1  0  0  0
   -4.3023   -3.3306    3.1167 O   0  0
   -2.6494   -2.9710    4.8449 C   0  0  2  0  0  0
   -3.3397   -1.8075    5.2924 O   0  0
   -1.1503   -2.8005    5.0724 C   0  0  1  0  0  0
   -0.8839   -2.6205    6.4621 O   0  0
   -0.4463   -4.0530    4.5650 C   0  0  2  0  0  0
    0.9613   -3.9198    4.7460 O   0  0
   -4.7044   -3.4851    1.7518 C   0  0
   -3.7562   -3.4680    0.5900 C   0  0
   -6.0047   -3.6497    1.5137 C   0  0
   -6.4978   -3.8138    0.1462 C   0  0
   -5.6503   -3.7993   -0.8783 C   0  0
   -4.2222   -3.6189   -0.6473 C   0  0
   -6.1284   -3.9563   -2.1759 N   0  0
   -1.3579   -5.6959    1.0314 H   0  0
   -0.4401   -6.3497    3.0903 H   0  0
    1.0103   -5.3767    2.6732 H   0  0
   -0.4090   -3.3356    2.5213 H   0  0
   -2.5283   -2.2895    2.7945 H   0  0
   -3.0102   -3.8497    5.3975 H   0  0
   -3.0106   -1.0210    4.7915 H   0  0
   -0.7917   -1.9258    4.5125 H   0  0
   -1.3499   -1.8100    6.7836 H   0  0
   -0.8079   -4.9316    5.1174 H   0  0
    1.2810   -3.1273    4.2474 H   0  0
   -2.7149   -3.3378    0.7302 H   0  0
   -6.6885   -3.6627    2.3239 H   0  0
   -7.5353   -3.9451   -0.0293 H   0  0
   -3.5522   -3.6073   -1.4691 H   0  0
   -7.1021   -4.0792   -2.3349 H   0  0
   -5.4957   -3.9454   -2.9428 H   0  0
  1  2  1  0
  3  2  1  0
  3  4  1  0
  4  5  1  0
  5  6  1  0
  5  7  1  0
  7  8  1  0
  7  9  1  0
  9 10  1  0
  9 11  1  0
  3 11  1  0
 11 12  1  0
  6 13  1  0
 15 16  1  0
 16 17  2  0
 17 18  1  0
 14 18  2  0
 14 13  1  0
 13 15  2  0
 17 19  1  0
  1 20  1  0
  2 21  1  0
  2 22  1  0
  3 23  1  0
  5 24  1  0
  7 25  1  0
  8 26  1  0
  9 27  1  0
 10 28  1  0
 11 29  1  0
 12 30  1  0
 14 31  1  0
 15 32  1  0
 16 33  1  0
 18 34  1  0
 19 35  1  0
 19 36  1  0
M  END
> <Name>
ALBB2007_6

> <Clean Energy>
-7.51686

$$$$
ALBB2007_8
  DSViewer          3D                             0

 29 28  0  0  0  0  0  0  0  0999 V2000
   -1.1210    0.0648   -3.7648 O   0  0
   -0.3372   -1.0647   -3.5552 C   0  0
   -0.9876   -2.3954   -3.3278 C   0  0
   -1.9870   -2.2753   -2.3130 N   0  0
   -2.5826   -3.3613   -1.8380 C   0  0
   -3.6228   -3.2294   -0.7742 C   0  0
   -3.2752   -4.0608    0.3339 N   0  0
   -3.8727   -3.8851    1.5055 C   0  0
   -3.5034   -4.7531    2.6637 C   0  0
    0.8952   -0.9716   -3.5561 O   0  0
   -2.2768   -4.4774   -2.2717 O   0  0
   -4.7318   -3.0067    1.6386 O   0  0
   -3.5978   -6.1253    2.2781 N   0  0
   -3.4785   -7.0784    3.1932 C   0  0
   -3.5820   -8.5157    2.7895 C   0  0
   -3.2831   -6.7800    4.3767 O   0  0
   -3.4330   -9.5763    4.1941 Cl  0  0
   -2.0779   -0.1867   -3.7333 H   0  0
   -1.5232   -2.6864   -4.2423 H   0  0
   -0.2548   -3.1756   -3.0778 H   0  0
   -2.2333   -1.3792   -1.9599 H   0  0
   -3.7636   -2.1853   -0.4606 H   0  0
   -4.5708   -3.6291   -1.1603 H   0  0
   -2.5819   -4.7661    0.2297 H   0  0
   -2.4455   -4.5840    2.9087 H   0  0
   -4.1192   -4.5447    3.5498 H   0  0
   -3.7566   -6.3658    1.3262 H   0  0
   -4.5417   -8.6717    2.2760 H   0  0
   -2.7964   -8.7318    2.0513 H   0  0
  1  2  1  0  0  0
  2  3  1  0  0  0
  3  4  1  0  0  0
  4  5  1  0  0  0
  5  6  1  0  0  0
  6  7  1  0  0  0
  7  8  1  0  0  0
  8  9  1  0  0  0
  2 10  2  0  0  0
  5 11  2  0  0  0
  8 12  2  0  0  0
  9 13  1  0  0  0
 13 14  1  0  0  0
 14 15  1  0  0  0
 14 16  2  0  0  0
 15 17  1  0  0  0
  1 18  1  0  0  0
  3 19  1  0  0  0
  3 20  1  0  0  0
  4 21  1  0  0  0
  6 22  1  0  0  0
  6 23  1  0  0  0
  7 24  1  0  0  0
  9 25  1  0  0  0
  9 26  1  0  0  0
 13 27  1  0  0  0
 15 28  1  0  0  0
 15 29  1  0  0  0
M  END
> <Clean Energy>
62.6949

$$$$
ALBB2007_9
  SciTegic12132405553D

 42 42  0  0  0  0            999 V2000
   -5.4698   -8.6102   -5.5185 O   0  0
   -5.4235   -7.2321   -5.3386 C   0  0
   -4.1089   -6.5524   -5.1049 C   0  0
   -3.4088   -7.2142   -4.0496 N   0  0
   -2.2906   -6.6902   -3.5653 C   0  0
   -1.5685   -7.3840   -2.4575 C   0  0
   -1.5165   -6.5148   -1.3256 N   0  0
   -1.2956   -7.0132   -0.1162 C   0  0
   -1.2507   -6.0983    1.0623 C   0  0
   -6.4656   -6.5684   -5.3700 O   0  0
   -1.8507   -5.6308   -4.0252 O   0  0
   -1.1285   -8.2284    0.0351 O   0  0
   -0.2017   -5.1493    0.8722 N   0  0
    0.0759   -4.2722    1.8285 C   0  0
    1.1779   -3.2799    1.6341 C   0  0
   -0.5747   -4.2762    2.8794 O   0  0
    0.9204   -2.4056    0.0676 S   0  0
    2.2451   -1.2563   -0.2083 C   0  0
    2.3840   -0.0452    0.6142 C   0  0
    3.0579   -1.4727   -1.1138 O   0  0
    3.5629    1.9875    1.2067 C   0  0
    3.4097    0.7767    0.3991 C   0  0
    1.4049    0.2715    1.6620 C   0  0
    1.5457    1.3736    2.3950 C   0  0
    2.6755    2.2715    2.1575 C   0  0
   -4.5535   -8.9810   -5.4642 H   0  0
   -3.4843   -6.6741   -6.0008 H   0  0
   -4.2302   -5.4806   -4.8931 H   0  0
   -3.7615   -8.0648   -3.6747 H   0  0
   -2.0374   -8.3425   -2.1936 H   0  0
   -0.5241   -7.5411   -2.7612 H   0  0
   -1.6544   -5.5368   -1.4421 H   0  0
   -2.1802   -5.5136    1.1057 H   0  0
   -1.1092   -6.6467    2.0041 H   0  0
    0.3210   -5.1481    0.0261 H   0  0
    1.2229   -2.5773    2.4786 H   0  0
    2.1284   -3.8225    1.5348 H   0  0
    4.3817    2.6391    1.0344 H   0  0
    4.1176    0.5530   -0.3578 H   0  0
    0.5845   -0.3749    1.8360 H   0  0
    0.8377    1.6010    3.1511 H   0  0
    2.7874    3.1492    2.7422 H   0  0
  1  2  1  0
  2  3  1  0
  3  4  1  0
  4  5  1  0
  5  6  1  0
  6  7  1  0
  7  8  1  0
  8  9  1  0
  2 10  2  0
  5 11  2  0
  8 12  2  0
  9 13  1  0
 13 14  1  0
 14 15  1  0
 14 16  2  0
 15 17  1  0
 17 18  1  0
 18 19  1  0
 18 20  2  0
 21 22  1  0
 23 24  2  0
 24 25  1  0
 21 25  2  0
 22 19  2  0
 19 23  1  0
  1 26  1  0
  3 27  1  0
  3 28  1  0
  4 29  1  0
  6 30  1  0
  6 31  1  0
  7 32  1  0
  9 33  1  0
  9 34  1  0
 13 35  1  0
 15 36  1  0
 15 37  1  0
 21 38  1  0
 22 39  1  0
 23 40  1  0
 24 41  1  0
 25 42  1  0
M  END
> <Name>
ALBB2007_9

> <Clean Energy>
63.9121

$$$$
ALBB2007_10
  SciTegic12132405553D

 75 77  0  0  0  0            999 V2000
  -20.6203   -0.2557   -1.2095 C   0  0
  -19.2673   -0.2307   -0.7297 N   0  0
  -18.8893   -0.3633    0.5530 C   0  0
  -17.4293   -0.2965    0.8648 C   0  0
  -17.0456   -1.4066    1.6751 N   0  0
  -15.7579   -1.6486    1.8830 C   0  0
  -15.3402   -2.8032    2.7306 C   0  0
  -14.5469   -2.3131    3.8097 N   0  0
  -14.0411   -3.1566    4.6998 C   0  0
  -13.2109   -2.6328    5.8273 C   0  0
  -12.3380   -1.6012    5.3587 N   0  0
  -11.5424   -0.9710    6.2130 C   0  0
  -10.6318    0.1106    5.7246 C   0  0
  -11.6176    1.3584    4.8543 S   0  0
  -10.5592    2.6410    4.2298 C   0  0
   -9.9198    3.6101    5.1338 C   0  0
  -22.0194   -0.0975   -3.1883 C   0  0
  -23.2217   -0.2578   -2.3187 C   0  0
  -23.0430   -0.4077   -1.0086 C   0  0
  -21.6968   -0.4071   -0.4275 C   0  0
  -20.8047   -0.0977   -2.6492 C   0  0
  -19.6899   -0.5309    1.4777 O   0  0
  -14.9019   -0.9136    1.3785 O   0  0
  -14.2555   -4.3694    4.5972 O   0  0
  -11.5555   -1.2753    7.4108 O   0  0
  -10.3661    2.7298    3.0124 O   0  0
   -9.0322    4.6315    4.5747 C   0  0
  -10.1416    3.5743    6.4486 C   0  0
   -9.4969    4.5499    7.3277 C   0  0
   -8.6891    5.4764    6.8168 C   0  0
   -8.4463    5.5192    5.3755 C   0  0
  -24.5700   -0.2594   -2.8065 O   0  0
  -22.2694    2.7618   -5.9645 O   0  0
  -23.6410    2.7737   -6.3664 C   0  0
  -24.2748    1.4244   -6.0225 C   0  0  1  0  0  0
  -24.1775    1.2104   -4.6035 O   0  0
  -24.7197   -0.0723   -4.2237 C   0  0  2  0  0  0
  -26.2132   -0.1263   -4.5842 C   0  0  2  0  0  0
  -26.7524   -1.3924   -4.2148 O   0  0
  -26.3519    0.0741   -6.0917 C   0  0  1  0  0  0
  -27.7280    0.0405   -6.4655 O   0  0
  -25.7477    1.4268   -6.4513 C   0  0  2  0  0  0
  -25.8431    1.6376   -7.8579 O   0  0
  -18.5491   -0.0998   -1.4041 H   0  0
  -16.8176   -0.2369   -0.0464 H   0  0
  -17.2454    0.5968    1.4778 H   0  0
  -17.7374   -1.9956    2.0789 H   0  0
  -16.2043   -3.3683    3.1075 H   0  0
  -14.6855   -3.4688    2.1506 H   0  0
  -14.3732   -1.3375    3.8941 H   0  0
  -13.8747   -2.1648    6.5676 H   0  0
  -12.6561   -3.4377    6.3294 H   0  0
  -12.3279   -1.3554    4.3953 H   0  0
  -10.0767    0.5601    6.5606 H   0  0
   -9.9407   -0.3129    4.9823 H   0  0
  -22.1086    0.0196   -4.2362 H   0  0
  -23.8861   -0.5233   -0.3761 H   0  0
  -21.5947   -0.5219    0.6121 H   0  0
  -19.9561    0.0188   -3.2737 H   0  0
   -8.8553    4.6638    3.5297 H   0  0
  -10.7845    2.8420    6.8604 H   0  0
   -9.6737    4.5192    8.3729 H   0  0
   -8.2223    6.1834    7.4548 H   0  0
   -7.8034    6.2577    4.9679 H   0  0
  -22.2121    2.6000   -4.9892 H   0  0
  -24.1747    3.5733   -5.8343 H   0  0
  -23.7068    2.9448   -7.4501 H   0  0
  -23.7393    0.6229   -6.5504 H   0  0
  -24.1878   -0.8712   -4.7598 H   0  0
  -26.7500    0.6725   -4.0535 H   0  0
  -26.2656   -2.1062   -4.6958 H   0  0
  -25.8076   -0.7218   -6.6183 H   0  0
  -28.1129   -0.8371   -6.2231 H   0  0
  -26.2840    2.2262   -5.9212 H   0  0
  -25.3587    0.9153   -8.3297 H   0  0
  1  2  1  0
  2  3  1  0
  3  4  1  0
  4  5  1  0
  5  6  1  0
  6  7  1  0
  7  8  1  0
  8  9  1  0
  9 10  1  0
 10 11  1  0
 11 12  1  0
 12 13  1  0
 13 14  1  0
 14 15  1  0
 15 16  1  0
 17 18  1  0
 18 19  2  0
 19 20  1  0
 17 21  2  0
 20  1  2  0
  1 21  1  0
 15 26  2  0
 12 25  2  0
  9 24  2  0
  6 23  2  0
  3 22  2  0
 28 29  1  0
 29 30  2  0
 30 31  1  0
 27 31  2  0
 27 16  1  0
 16 28  2  0
 18 32  1  0
 33 34  1  0
 35 34  1  0
 35 36  1  0
 36 37  1  0
 37 38  1  0
 38 39  1  0
 38 40  1  0
 40 41  1  0
 40 42  1  0
 35 42  1  0
 42 43  1  0
 37 32  1  0
  2 44  1  0
  4 45  1  0
  4 46  1  0
  5 47  1  0
  7 48  1  0
  7 49  1  0
  8 50  1  0
 10 51  1  0
 10 52  1  0
 11 53  1  0
 13 54  1  0
 13 55  1  0
 17 56  1  0
 19 57  1  0
 20 58  1  0
 21 59  1  0
 27 60  1  0
 28 61  1  0
 29 62  1  0
 30 63  1  0
 31 64  1  0
 33 65  1  0
 34 66  1  0
 34 67  1  0
 35 68  1  0
 37 69  1  0
 38 70  1  0
 39 71  1  0
 40 72  1  0
 41 73  1  0
 42 74  1  0
 43 75  1  0
M  END
> <Name>
ALBB2007_10

> <Clean Energy>
59.1318

$$$$
ACO2009-12
  SciTegic12132405553D

 29 30  0  0  0  0            999 V2000
   -5.9591    0.7724   -0.0003 C   0  0
   -7.2070    0.0246   -0.0003 C   0  0
   -7.1828   -1.3045   -0.0001 C   0  0
   -5.9098   -2.0154    0.0002 C   0  0
   -4.7687   -1.3350    0.0001 C   0  0
   -4.7937    0.1297   -0.0001 C   0  0
   -3.5611    0.9140    0.0000 C   0  0
   -2.3577    0.3093   -0.0003 N   0  0
   -1.1028    1.0192   -0.0002 C   0  0
    0.2942    2.9993    0.0016 C   0  0
   -1.0057    2.3584    0.0016 C   0  0
    0.1289    0.2233   -0.0021 C   0  0
    1.3130    0.8219   -0.0021 C   0  0
    1.3919    2.2602   -0.0002 C   0  0
    2.6062    2.8623   -0.0002 N   0  0
   -8.3931   -2.0298    0.0000 C   0  0
   -9.3783   -2.6202    0.0001 N   0  0
    2.6734    4.0321    0.0015 O   0  0
    3.6940    2.1262   -0.0023 O   0  0
   -3.6690    2.1392    0.0003 O   0  0
   -5.9766    1.8307   -0.0005 H   0  0
   -8.1337    0.5383   -0.0005 H   0  0
   -5.8943   -3.0708    0.0004 H   0  0
   -3.8492   -1.8520    0.0003 H   0  0
   -2.3287   -0.6879   -0.0008 H   0  0
    0.3714    4.0609    0.0031 H   0  0
   -1.8662    2.9602    0.0031 H   0  0
    0.0779   -0.8298   -0.0035 H   0  0
    2.2056    0.2453   -0.0035 H   0  0
  1  2  1  0
  2  3  2  0
  3  4  1  0
  4  5  2  0
  5  6  1  0
  1  6  2  0
  6  7  1  0
  7  8  1  0
  8  9  1  0
 10 11  1  0
 12 13  2  0
 13 14  1  0
 10 14  2  0
 11  9  2  0
  9 12  1  0
 14 15  1  0
  3 16  1  0
 15 18  2  0
 15 19  1  0
  7 20  2  0
 16 17  3  0
  1 21  1  0
  2 22  1  0
  4 23  1  0
  5 24  1  0
  8 25  1  0
 10 26  1  0
 11 27  1  0
 12 28  1  0
 13 29  1  0
M  END
> <Name>
ACO2009-12

> <Clean Energy>
-22.4797973632812

$$$$
ACO2009-14
  SciTegic12132405553D

 30 31  0  0  0  0            999 V2000
   -7.3572    1.7037   -0.0165 C   0  0
   -8.6483    1.0364    0.0080 C   0  0
   -8.7065   -0.2909    0.0386 C   0  0
   -7.4806   -1.0796    0.0477 C   0  0
   -6.2979   -0.4708    0.0254 C   0  0
   -6.2342    0.9893   -0.0084 C   0  0
   -0.0226    1.7990    0.0025 C   0  0
   -1.2941    1.0696   -0.0266 C   0  0
   -1.2885   -0.2647   -0.0286 C   0  0
   -0.0114   -0.9970   -0.0011 C   0  0
    1.1402   -0.3282    0.0253 C   0  0
    1.1329    1.1359    0.0270 C   0  0
   -4.9603    1.6953   -0.0339 C   0  0
   -4.9710    2.9266   -0.0627 O   0  0
   -3.7912    1.0610   -0.0275 N   0  0
   -2.5905    1.8593   -0.0551 C   0  0
   -9.9583   -0.9382    0.0622 C   0  0
  -10.9784   -1.4657    0.0815 N   0  0
   -7.3087    2.7611   -0.0410 H   0  0
   -9.5411    1.6067    0.0014 H   0  0
   -7.5320   -2.1336    0.0720 H   0  0
   -5.4118   -1.0414    0.0319 H   0  0
   -0.0232    2.8609    0.0037 H   0  0
   -2.1992   -0.7983   -0.0500 H   0  0
   -0.0055   -2.0617   -0.0024 H   0  0
    2.0664   -0.8582    0.0451 H   0  0
    2.0498    1.6702    0.0479 H   0  0
   -3.7491    0.0731   -0.0043 H   0  0
   -2.5991    2.4996   -0.9497 H   0  0
   -2.5989    2.5749    0.7808 H   0  0
  1  2  1  0
  2  3  2  0
  3  4  1  0
  4  5  2  0
  5  6  1  0
  1  6  2  0
  7  8  1  0
  8  9  2  0
  9 10  1  0
 10 11  2  0
 11 12  1  0
  7 12  2  0
  6 13  1  0
 13 15  1  0
 15 16  1  0
 16  8  1  0
  3 17  1  0
 13 14  2  0
 17 18  3  0
  1 19  1  0
  2 20  1  0
  4 21  1  0
  5 22  1  0
  7 23  1  0
  9 24  1  0
 10 25  1  0
 11 26  1  0
 12 27  1  0
 15 28  1  0
 16 29  1  0
 16 30  1  0
M  END
> <Name>
ACO2009-14

> <Clean Energy>
-4.063159

> <REMARK99>
REMARK  99  MacroMolecule created from Mol2 file
REMARK  99  ACO2009 - Intermediário - (14)
REMARK  99  PROTEIN
REMARK  99  USER_CHARGES
REMARK  99  
REMARK  99  

$$$$
ACO2009-16
  SciTegic12132405553D

 46 49  0  0  0  0            999 V2000
   -2.2081    5.3678    0.1262 C   0  0
   -3.3702    5.1557    1.0159 C   0  0
   -3.2608    4.4245    2.1266 C   0  0
   -1.9862    3.8209    2.4811 C   0  0
   -0.8494    4.0275    1.6134 C   0  0
   -1.0195    4.8341    0.4107 C   0  0
   -1.8699    3.0905    3.5868 C   0  0
   -0.5868    2.4890    3.9343 C   0  0
    0.4705    2.6697    3.1458 C   0  0
    0.3345    3.4923    1.9029 C   0  0
    1.4031    3.7402    1.0027 O   0  0
    2.6628    3.1349    1.3616 C   0  0
    3.7191    3.4992    0.2848 C   0  0
    5.0855    2.8624    0.6072 C   0  0
    6.0222    3.2272   -0.4373 O   0  0
    8.3191    3.0698   -1.3298 C   0  0
    7.3464    2.7019   -0.3017 C   0  0
    7.7362    1.8987    0.7103 C   0  0
    9.1209    1.3893    0.7892 C   0  0
   10.0277    1.7056   -0.1321 C   0  0
    9.6693    2.5646   -1.2391 C   0  0
    8.9630    4.2273   -3.3635 C   0  0
    7.9702    3.8658   -2.3419 C   0  0
   10.5744    2.8858   -2.1606 C   0  0
   10.2051    3.7574   -3.2745 C   0  0
    3.2950    3.0149   -0.9778 O   0  0
   -2.3210    5.9533   -0.7522 H   0  0
   -4.3056    5.5916    0.7669 H   0  0
   -4.1025    4.2831    2.7512 H   0  0
   -0.1970    4.9969   -0.2402 H   0  0
   -2.7067    2.9452    4.2148 H   0  0
   -0.4963    1.9066    4.8175 H   0  0
    1.3931    2.2252    3.4156 H   0  0
    2.9917    3.5127    2.3415 H   0  0
    2.5465    2.0419    1.4066 H   0  0
    3.8300    4.5926    0.2394 H   0  0
    5.4460    3.2311    1.5800 H   0  0
    4.9795    1.7674    0.6429 H   0  0
    7.0614    1.6113    1.4717 H   0  0
    9.3983    0.7578    1.5970 H   0  0
   11.0105    1.3288   -0.0534 H   0  0
    8.6935    4.8627   -4.1721 H   0  0
    6.9784    4.2388   -2.4093 H   0  0
   11.5614    2.5113   -2.0857 H   0  0
   10.9258    4.0159   -4.0099 H   0  0
    3.9811    3.2478   -1.6544 H   0  0
  1  2  1  0
  2  3  2  0
  3  4  1  0
  4  5  1  0
  5  6  1  0
  1  6  2  0
  7  8  1  0
  8  9  2  0
  9 10  1  0
  4  7  2  0
  5 10  2  0
 16 17  1  0
 17 18  2  0
 18 19  1  0
 19 20  2  0
 20 21  1  0
 16 21  1  0
 22 23  1  0
 24 25  1  0
 22 25  2  0
 23 16  2  0
 21 24  2  0
 26 13  1  0
 13 14  1  0
 14 15  1  0
 15 17  1  0
 12 13  1  0
 12 11  1  0
 11 10  1  0
  1 27  1  0
  2 28  1  0
  3 29  1  0
  6 30  1  0
  7 31  1  0
  8 32  1  0
  9 33  1  0
 12 34  1  0
 12 35  1  0
 13 36  1  0
 14 37  1  0
 14 38  1  0
 18 39  1  0
 19 40  1  0
 20 41  1  0
 22 42  1  0
 23 43  1  0
 24 44  1  0
 25 45  1  0
 26 46  1  0
M  END
> <Name>
ACO2009-16

> <Clean Energy>
2.260567

> <REMARK99>
REMARK  99  MacroMolecule created from Mol2 file
REMARK  99  ACO2009 - Intermediário - (16)
REMARK  99  PROTEIN
REMARK  99  USER_CHARGES
REMARK  99  
REMARK  99  

$$$$
ACO2009-17
  SciTegic12132405553D

 52 55  0  0  0  0            999 V2000
   -1.5944    2.1546    0.7422 C   0  0
   -2.9420    1.5648    0.5926 C   0  0
   -3.0973    0.2785    0.2742 C   0  0
   -1.9334   -0.5680    0.0669 C   0  0
   -0.6153    0.0080    0.2079 C   0  0
   -0.4982    1.4171    0.5603 C   0  0
   -2.0810   -1.8519   -0.2482 C   0  0
   -0.9077   -2.6934   -0.4545 C   0  0
    0.3135   -2.1782   -0.3293 C   0  0
    0.4753   -0.7330    0.0236 C   0  0
    1.7377   -0.0984    0.1751 O   0  0
    2.8880   -0.9705   -0.0121 C   0  0
    4.1958   -0.1344    0.1726 C   0  0
    5.4321   -1.0853    0.0093 C   0  0
    6.6589   -0.3634    0.2289 O   0  0
    9.1052   -0.3874    0.3489 C   0  0
    7.8655   -1.1078    0.1109 C   0  0
    7.9154   -2.4155   -0.2041 C   0  0
    9.2096   -3.1226   -0.3114 C   0  0
   10.3621   -2.4898   -0.1001 C   0  0
   10.3643   -1.0839    0.2424 C   0  0
   10.3293    1.6256    0.9034 C   0  0
    9.0776    0.9069    0.6640 C   0  0
   11.5087   -0.4396    0.4570 C   0  0
   11.4911    0.9827    0.8041 C   0  0
    4.1729    0.9654   -0.8088 O   0  0
    5.5057    2.0579   -0.7006 S   0  0
    5.7930    2.3147    0.7652 O   0  0
    6.7417    1.4823   -1.3748 O   0  0
    5.0893    3.6458   -1.5244 C   0  0
   -1.4971    3.1800    0.9994 H   0  0
   -3.7987    2.1736    0.7419 H   0  0
   -4.0689   -0.1271    0.1723 H   0  0
    0.4585    1.8565    0.6751 H   0  0
   -3.0484   -2.2636   -0.3491 H   0  0
   -1.0278   -3.7182   -0.7053 H   0  0
    1.1522   -2.8049   -0.4840 H   0  0
    2.8657   -1.4038   -1.0234 H   0  0
    2.8684   -1.7748    0.7317 H   0  0
    4.2055    0.2919    1.1869 H   0  0
    5.3617   -1.8869    0.7567 H   0  0
    5.4288   -1.5247   -0.9994 H   0  0
    7.0334   -2.9654   -0.3834 H   0  0
    9.2205   -4.1548   -0.5621 H   0  0
   11.2740   -3.0150   -0.1824 H   0  0
   10.3115    2.6558    1.1557 H   0  0
    8.1467    1.4172    0.7406 H   0  0
   12.4292   -0.9549    0.3776 H   0  0
   12.4020    1.4998    0.9769 H   0  0
    5.9408    4.3417   -1.4392 H   0  0
    4.8727    3.4669   -2.5890 H   0  0
    4.2072    4.0948   -1.0433 H   0  0
  1  2  1  0
  2  3  2  0
  3  4  1  0
  4  5  1  0
  5  6  1  0
  1  6  2  0
  7  8  1  0
  8  9  2  0
  9 10  1  0
  4  7  2  0
  5 10  2  0
 16 17  1  0
 17 18  2  0
 18 19  1  0
 19 20  2  0
 20 21  1  0
 16 21  1  0
 22 23  1  0
 24 25  1  0
 22 25  2  0
 23 16  2  0
 21 24  2  0
 27 30  1  0
 27 26  1  0
 26 13  1  0
 13 14  1  0
 14 15  1  0
 15 17  1  0
 12 13  1  0
 12 11  1  0
 11 10  1  0
 27 28  2  0
 27 29  2  0
  1 31  1  0
  2 32  1  0
  3 33  1  0
  6 34  1  0
  7 35  1  0
  8 36  1  0
  9 37  1  0
 12 38  1  0
 12 39  1  0
 13 40  1  0
 14 41  1  0
 14 42  1  0
 18 43  1  0
 19 44  1  0
 20 45  1  0
 22 46  1  0
 23 47  1  0
 24 48  1  0
 25 49  1  0
 30 50  1  0
 30 51  1  0
 30 52  1  0
M  END
> <Name>
ACO2009-17

> <Clean Energy>
7.487617

> <REMARK99>
REMARK  99  MacroMolecule created from Mol2 file
REMARK  99  ACO2009 - Intermediário - (17)
REMARK  99  PROTEIN
REMARK  99  USER_CHARGES
REMARK  99  
REMARK  99  

$$$$
ACO2009-18
  SciTegic12132405553D

 47 50  0  0  0  0            999 V2000
   -1.9395    2.0931   -0.1402 C   0  0
   -3.2424    1.3933   -0.0696 C   0  0
   -3.3042    0.0630    0.0019 C   0  0
   -2.0819   -0.7247    0.0126 C   0  0
   -0.8032   -0.0437   -0.0575 C   0  0
   -0.7902    1.4130   -0.1350 C   0  0
   -2.1405   -2.0508    0.0872 C   0  0
   -0.9141   -2.8357    0.1012 C   0  0
    0.2694   -2.2289    0.0396 C   0  0
    0.3383   -0.7348   -0.0468 C   0  0
    1.5710   -0.0090   -0.1177 O   0  0
    2.7703   -0.8409   -0.0686 C   0  0
    4.0796    0.0161   -0.1637 C   0  0
    5.3303   -0.9214   -0.0897 C   0  0
    6.5688   -0.1530   -0.1521 O   0  0
    9.0455   -0.1626   -0.0960 C   0  0
    7.7883   -0.9099   -0.0811 C   0  0
    7.8322   -2.2546    0.0025 C   0  0
    9.1236   -2.9762    0.0712 C   0  0
   10.2836   -2.3234    0.0570 C   0  0
   10.3019   -0.8802   -0.0247 C   0  0
   10.3088    1.9044   -0.1730 C   0  0
    9.0397    1.1683   -0.1661 C   0  0
   11.4578   -0.2200   -0.0307 C   0  0
   11.4622    1.2408   -0.1085 C   0  0
    4.1423    0.9478    0.9184 N   0  0
    5.0441    1.7055    0.9705 N   0  0
    5.9460    2.4631    1.0223 N   0  0
   -1.9190    3.1529   -0.1956 H   0  0
   -4.1420    1.9586   -0.0757 H   0  0
   -4.2450   -0.4212    0.0521 H   0  0
    0.1340    1.9334   -0.1856 H   0  0
   -3.0775   -2.5368    0.1378 H   0  0
   -0.9643   -3.8945    0.1611 H   0  0
    1.1460   -2.8195    0.0511 H   0  0
    2.7779   -1.3948    0.8809 H   0  0
    2.7524   -1.5496   -0.9059 H   0  0
    4.1043    0.5667   -1.1154 H   0  0
    5.2979   -1.6339   -0.9255 H   0  0
    5.3041   -1.4705    0.8621 H   0  0
    6.9469   -2.8264    0.0180 H   0  0
    9.1249   -4.0367    0.1327 H   0  0
   11.1912   -2.8613    0.1074 H   0  0
   10.3081    2.9642   -0.2281 H   0  0
    8.1173    1.6957   -0.2143 H   0  0
   12.3727   -0.7518    0.0230 H   0  0
   12.3832    1.7706   -0.1122 H   0  0
  1  2  1  0
  2  3  2  0
  3  4  1  0
  4  5  1  0
  5  6  1  0
  1  6  2  0
  7  8  1  0
  8  9  2  0
  9 10  1  0
  4  7  2  0
  5 10  2  0
 16 17  1  0
 17 18  2  0
 18 19  1  0
 19 20  2  0
 20 21  1  0
 16 21  1  0
 22 23  1  0
 24 25  1  0
 22 25  2  0
 23 16  2  0
 21 24  2  0
 26 13  1  0
 13 14  1  0
 14 15  1  0
 15 17  1  0
 12 13  1  0
 12 11  1  0
 11 10  1  0
 26 27  2  0
 27 28  2  0
  1 29  1  0
  2 30  1  0
  3 31  1  0
  6 32  1  0
  7 33  1  0
  8 34  1  0
  9 35  1  0
 12 36  1  0
 12 37  1  0
 13 38  1  0
 14 39  1  0
 14 40  1  0
 18 41  1  0
 19 42  1  0
 20 43  1  0
 22 44  1  0
 23 45  1  0
 24 46  1  0
 25 47  1  0
M  END
> <Name>
ACO2009-18

> <Clean Energy>
14.190758

> <REMARK99>
REMARK  99  MacroMolecule created from Mol2 file
REMARK  99  ACO2009 - Intermediário - (18)
REMARK  99  PROTEIN
REMARK  99  USER_CHARGES
REMARK  99  
REMARK  99  

$$$$
ACO2009-19
  SciTegic12132405553D

 48 51  0  0  0  0            999 V2000
   -1.8335    2.2081    0.2896 C   0  0
   -3.1632    1.5714    0.2439 C   0  0
   -3.2888    0.2488    0.1395 C   0  0
   -2.1085   -0.5964    0.0688 C   0  0
   -0.7949    0.0178    0.1071 C   0  0
   -0.7159    1.4779    0.2241 C   0  0
   -2.2429   -1.9153   -0.0279 C   0  0
   -1.0688   -2.7665   -0.0947 C   0  0
    0.1480   -2.2308   -0.0613 C   0  0
    0.3082   -0.7363    0.0441 C   0  0
    1.5893   -0.0853    0.0841 O   0  0
    2.7184   -0.9888    0.0442 C   0  0
    4.0192   -0.1504    0.0997 C   0  0
    5.2775   -1.0543    0.0409 C   0  0
    6.4541   -0.2083    0.0764 O   0  0
    8.9509   -0.0830    0.1039 C   0  0
    7.7259   -0.8996    0.0400 C   0  0
    7.8482   -2.2439   -0.0448 C   0  0
    9.1744   -2.8922   -0.0822 C   0  0
   10.2964   -2.1805   -0.0317 C   0  0
   10.2403   -0.7409    0.0656 C   0  0
   10.1296    2.0364    0.2691 C   0  0
    8.8903    1.2472    0.2031 C   0  0
   11.3658   -0.0325    0.1237 C   0  0
   11.3088    1.4220    0.2296 C   0  0
    4.0387    0.7608   -1.0326 N   0  0
   -1.7674    3.2663    0.3772 H   0  0
   -4.0341    2.1764    0.2958 H   0  0
   -4.2522   -0.1888    0.1094 H   0  0
    0.2270    1.9569    0.2601 H   0  0
   -3.2065   -2.3467   -0.0541 H   0  0
   -1.1820   -3.8197   -0.1694 H   0  0
    0.9856   -2.8760   -0.1102 H   0  0
    2.6888   -1.5751   -0.8885 H   0  0
    2.6821   -1.6735    0.9102 H   0  0
    4.0353    0.4323    1.0330 H   0  0
    5.2816   -1.7390    0.9077 H   0  0
    5.2753   -1.6428   -0.8908 H   0  0
    6.9992   -2.8711   -0.0894 H   0  0
    9.2337   -3.9506   -0.1520 H   0  0
   11.2307   -2.6707   -0.0605 H   0  0
   10.0874    3.0959    0.3491 H   0  0
    7.9519    1.7363    0.2359 H   0  0
   12.3029   -0.5250    0.0958 H   0  0
   12.2058    1.9880    0.2772 H   0  0
    4.0243    0.2280   -1.9062 H   0  0
    4.8970    1.3297   -0.9898 H   0  0
    3.2076    1.3706   -0.9867 H   0  0
  1  2  1  0
  2  3  2  0
  3  4  1  0
  4  5  1  0
  5  6  1  0
  1  6  2  0
  7  8  1  0
  8  9  2  0
  9 10  1  0
  4  7  2  0
  5 10  2  0
 16 17  1  0
 17 18  2  0
 18 19  1  0
 19 20  2  0
 20 21  1  0
 16 21  1  0
 22 23  1  0
 24 25  1  0
 22 25  2  0
 23 16  2  0
 21 24  2  0
 26 13  1  0
 13 14  1  0
 14 15  1  0
 15 17  1  0
 12 13  1  0
 12 11  1  0
 11 10  1  0
  1 27  1  0
  2 28  1  0
  3 29  1  0
  6 30  1  0
  7 31  1  0
  8 32  1  0
  9 33  1  0
 12 34  1  0
 12 35  1  0
 13 36  1  0
 14 37  1  0
 14 38  1  0
 18 39  1  0
 19 40  1  0
 20 41  1  0
 22 42  1  0
 23 43  1  0
 24 44  1  0
 25 45  1  0
 26 46  1  0
 26 47  1  0
 26 48  1  0
M  END
> <Name>
ACO2009-19

> <Clean Energy>
11.871896

> <REMARK99>
REMARK  99  MacroMolecule created from Mol2 file
REMARK  99  ACO2009 - Intermediário - (19)
REMARK  99  PROTEIN
REMARK  99  USER_CHARGES
REMARK  99  
REMARK  99  

$$$$
ACO2009-20
  SciTegic12132405553D

 60 64  0  0  0  0            999 V2000
   -2.1890    1.7270    0.9496 C   0  0
   -3.4452    1.0209    0.6149 C   0  0
   -3.4267   -0.2183    0.1210 C   0  0
   -2.1610   -0.8952   -0.1006 C   0  0
   -0.9317   -0.2040    0.2219 C   0  0
   -1.0030    1.1452    0.7639 C   0  0
   -2.1325   -2.1291   -0.5965 C   0  0
   -0.8550   -2.7948   -0.8223 C   0  0
    0.2836   -2.1669   -0.5370 C   0  0
    0.2475   -0.7852    0.0202 C   0  0
    1.4101   -0.0513    0.3509 O   0  0
    2.6453   -0.7164    0.0365 C   0  0
    3.8745    0.1250    0.4880 C   0  0
    5.1181   -0.6755    0.0667 C   0  0
    6.3287    0.0221    0.4056 O   0  0
    8.7863    0.0141    0.3445 C   0  0
    7.5355   -0.6828    0.0971 C   0  0
    7.5718   -1.9363   -0.4047 C   0  0
    8.8572   -2.6049   -0.6934 C   0  0
   10.0182   -1.9919   -0.4767 C   0  0
   10.0386   -0.6446    0.0498 C   0  0
   10.0447    1.9549    1.0595 C   0  0
    8.7775    1.2554    0.8282 C   0  0
   11.1939   -0.0185    0.2578 C   0  0
   11.1980    1.3461    0.7864 C   0  0
    3.8724    1.4375   -0.1251 N   0  0
    2.9970    6.4528   -0.8317 C   0  0
    2.2411    6.0271    0.3328 C   0  0
    2.2990    4.7615    0.7318 C   0  0
    3.1251    3.7909   -0.0030 C   0  0
    3.8141    4.1871   -1.0710 C   0  0
    3.7458    5.5809   -1.5022 C   0  0
    3.1747    2.4055    0.4784 C   0  0
    2.9355    7.7980   -1.2481 C   0  0
    2.8853    8.8942   -1.5873 N   0  0
    2.5496    2.1253    1.5008 O   0  0
   -2.2327    2.7098    1.3434 H   0  0
   -4.3756    1.5074    0.7708 H   0  0
   -4.3345   -0.7083   -0.1122 H   0  0
   -0.1106    1.6660    1.0103 H   0  0
   -3.0348   -2.6271   -0.8292 H   0  0
   -0.8327   -3.7809   -1.2155 H   0  0
    1.1989   -2.6650   -0.7051 H   0  0
    2.6937   -0.8697   -1.0500 H   0  0
    2.6824   -1.6890    0.5466 H   0  0
    3.8318    0.2561    1.5795 H   0  0
    5.0943   -1.6528    0.5729 H   0  0
    5.0959   -0.8260   -1.0216 H   0  0
    6.6837   -2.4759   -0.5972 H   0  0
    8.8544   -3.5943   -1.0805 H   0  0
   10.9241   -2.4898   -0.6910 H   0  0
   10.0434    2.9449    1.4410 H   0  0
    7.8500    1.7398    1.0418 H   0  0
   12.1075   -0.5064    0.0387 H   0  0
   12.1182    1.8498    0.9504 H   0  0
    4.4030    1.6155   -0.9471 H   0  0
    1.6457    6.7269    0.8633 H   0  0
    1.7483    4.4521    1.5818 H   0  0
    4.4136    3.5013   -1.6022 H   0  0
    4.2941    5.8979   -2.3451 H   0  0
  1  2  1  0
  2  3  2  0
  3  4  1  0
  4  5  1  0
  5  6  1  0
  1  6  2  0
  7  8  1  0
  8  9  2  0
  9 10  1  0
  4  7  2  0
  5 10  2  0
 16 17  1  0
 17 18  2  0
 18 19  1  0
 19 20  2  0
 20 21  1  0
 16 21  1  0
 22 23  1  0
 24 25  1  0
 22 25  2  0
 23 16  2  0
 21 24  2  0
 26 13  1  0
 13 14  1  0
 14 15  1  0
 15 17  1  0
 12 13  1  0
 12 11  1  0
 11 10  1  0
 27 28  1  0
 28 29  2  0
 29 30  1  0
 30 31  2  0
 31 32  1  0
 27 32  2  0
 26 33  1  0
 33 30  1  0
 27 34  1  0
 34 35  3  0
 33 36  2  0
  1 37  1  0
  2 38  1  0
  3 39  1  0
  6 40  1  0
  7 41  1  0
  8 42  1  0
  9 43  1  0
 12 44  1  0
 12 45  1  0
 13 46  1  0
 14 47  1  0
 14 48  1  0
 18 49  1  0
 19 50  1  0
 20 51  1  0
 22 52  1  0
 23 53  1  0
 24 54  1  0
 25 55  1  0
 26 56  1  0
 28 57  1  0
 29 58  1  0
 31 59  1  0
 32 60  1  0
M  END
> <Name>
ACO2009-20

> <Clean Energy>
1.462132

> <REMARK99>
REMARK  99  MacroMolecule created from Mol2 file
REMARK  99  ACO2009 - Intermediário - (20)
REMARK  99  PROTEIN
REMARK  99  USER_CHARGES
REMARK  99  
REMARK  99  

$$$$
ACO2009-22
  SciTegic12132405553D

 46 49  0  0  0  0            999 V2000
   -1.0191   -4.9995    3.0496 C   0  0
   -0.0641   -4.5320    2.0572 C   0  0
   -0.7477   -6.2244    3.7721 C   0  0
    0.4729   -6.9568    3.4874 C   0  0
    1.3310   -6.5035    2.5712 C   0  0
    1.0537   -5.2226    1.8116 C   0  0
    1.9418   -4.6969    0.8219 O   0  0
    3.1308   -5.4736    0.5884 C   0  0
    3.9836   -4.7747   -0.5005 C   0  0
    5.2756   -5.5511   -0.7771 C   0  0
    6.0042   -4.8160   -1.7707 O   0  0
    7.9573   -4.7122   -3.0729 C   0  0
    7.2549   -5.3760   -2.1521 C   0  0
    7.7988   -6.6599   -1.5643 C   0  0
    8.9796   -7.1449   -1.9545 C   0  0
    9.7632   -6.4414   -2.9549 C   0  0
    9.2454   -5.2116   -3.5194 C   0  0
    4.3535   -3.4763   -0.0718 O   0  0
   -2.1321   -4.3087    3.2920 C   0  0
   -3.0861   -4.7914    4.2950 C   0  0
   -2.8364   -5.9188    4.9601 C   0  0
   -1.6083   -6.6713    4.6854 C   0  0
    9.9446   -4.5473   -4.4383 C   0  0
   10.9426   -6.9182   -3.3500 C   0  0
   11.7202   -6.1945   -4.3609 C   0  0
   11.2438   -5.0634   -4.8799 C   0  0
   -0.2598   -3.6327    1.5238 H   0  0
    0.6848   -7.8578    4.0102 H   0  0
    2.2109   -7.0630    2.3888 H   0  0
    3.7129   -5.5458    1.5191 H   0  0
    2.8538   -6.4822    0.2463 H   0  0
    3.3996   -4.6995   -1.4297 H   0  0
    5.0375   -6.5623   -1.1418 H   0  0
    5.8709   -5.6187    0.1462 H   0  0
    7.5705   -3.8095   -3.4827 H   0  0
    7.2511   -7.1954   -0.8327 H   0  0
    9.3469   -8.0482   -1.5313 H   0  0
    4.9146   -3.0547   -0.7862 H   0  0
   -2.3283   -3.4095    2.7595 H   0  0
   -3.9748   -4.2435    4.4913 H   0  0
   -3.5265   -6.2717    5.6884 H   0  0
   -1.4061   -7.5713    5.2143 H   0  0
    9.5617   -3.6450   -4.8505 H   0  0
   11.3201   -7.8209   -2.9339 H   0  0
   12.6624   -6.5713   -4.6793 H   0  0
   11.8045   -4.5366   -5.6124 H   0  0
  1  2  1  0
  3  4  1  0
  4  5  2  0
  5  6  1  0
  1  3  1  0
  2  6  2  0
 18  9  1  0
  9 10  1  0
 10 11  1  0
 11 13  1  0
  8  9  1  0
  8  7  1  0
  7  6  1  0
 19 20  1  0
 20 21  2  0
 21 22  1  0
 19  1  2  0
 22  3  2  0
 12 13  2  0
 13 14  1  0
 14 15  2  0
 15 16  1  0
 12 17  1  0
 16 17  1  0
 24 25  1  0
 25 26  2  0
 23 26  1  0
 16 24  2  0
 23 17  2  0
  2 27  1  0
  4 28  1  0
  5 29  1  0
  8 30  1  0
  8 31  1  0
  9 32  1  0
 10 33  1  0
 10 34  1  0
 12 35  1  0
 14 36  1  0
 15 37  1  0
 18 38  1  0
 19 39  1  0
 20 40  1  0
 21 41  1  0
 22 42  1  0
 23 43  1  0
 24 44  1  0
 25 45  1  0
 26 46  1  0
M  END
> <Name>
ACO2009-22

> <Clean Energy>
11.094304

> <REMARK99>
REMARK  99  MacroMolecule created from Mol2 file
REMARK  99  ACO2009 - Intermediário - (22)
REMARK  99  PROTEIN
REMARK  99  USER_CHARGES
REMARK  99  
REMARK  99  

$$$$
ACO2009-23
  SciTegic12132405553D

 52 55  0  0  0  0            999 V2000
   -6.7426   -1.7773   -0.1315 C   0  0
   -5.4189   -1.1970   -0.2925 C   0  0
   -6.8643   -3.1813    0.2015 C   0  0
   -5.6598   -3.9753    0.3666 C   0  0
   -4.4587   -3.4141    0.2124 C   0  0
   -4.3251   -1.9476   -0.1358 C   0  0
   -3.0652   -1.3020   -0.3110 O   0  0
   -1.9013   -2.1498   -0.1354 C   0  0
   -0.6224   -1.2851   -0.3595 C   0  0
    0.6408   -2.1935   -0.1923 C   0  0
    1.8274   -1.4331   -0.4339 O   0  0
    4.1725   -1.4568   -0.5361 C   0  0
    3.0508   -2.1439   -0.3146 C   0  0
    3.1201   -3.6055    0.0458 C   0  0
    4.2952   -4.2319    0.1472 C   0  0
    5.5328   -3.5068   -0.0891 C   0  0
    5.4662   -2.1031   -0.4326 C   0  0
   -0.6637   -0.1656    0.5924 O   0  0
   -7.8319   -1.0267   -0.2884 C   0  0
   -9.1599   -1.6254   -0.1230 C   0  0
   -9.2721   -2.9174    0.1834 C   0  0
   -8.0665   -3.7345    0.3539 C   0  0
    6.5787   -1.4077   -0.6513 C   0  0
    6.7120   -4.1185    0.0098 C   0  0
    7.9472   -3.3626   -0.2307 C   0  0
    7.8830   -2.0689   -0.5458 C   0  0
    0.6287    0.9680    0.4281 S   0  0
    0.9288    1.1510   -1.0466 O   0  0
    0.1331    2.5844    1.1481 C   0  0
    1.8778    0.4773    1.1451 O   0  0
   -5.3219   -0.1664   -0.5373 H   0  0
   -5.7340   -5.0071    0.6113 H   0  0
   -3.6009   -4.0203    0.3398 H   0  0
   -1.8959   -2.5641    0.8844 H   0  0
   -1.9170   -2.9681   -0.8641 H   0  0
   -0.6401   -0.8798   -1.3824 H   0  0
    0.5896   -3.0117   -0.9231 H   0  0
    0.6630   -2.6119    0.8254 H   0  0
    4.1199   -0.4275   -0.7907 H   0  0
    2.2375   -4.1583    0.2240 H   0  0
    4.3248   -5.2635    0.4021 H   0  0
   -7.7388    0.0039   -0.5329 H   0  0
  -10.0311   -1.0304   -0.2473 H   0  0
  -10.2341   -3.3547    0.3040 H   0  0
   -8.1526   -4.7656    0.5984 H   0  0
    6.5182   -0.3748   -0.9019 H   0  0
    6.7594   -5.1501    0.2630 H   0  0
    8.8916   -3.8458   -0.1532 H   0  0
    8.7747   -1.5185   -0.7201 H   0  0
   -0.0935    2.4606    2.2179 H   0  0
   -0.7580    2.9664    0.6285 H   0  0
    0.9571    3.3088    1.0321 H   0  0
  1  2  1  0
  3  4  1  0
  4  5  2  0
  5  6  1  0
  1  3  1  0
  2  6  2  0
 18  9  1  0
  9 10  1  0
 10 11  1  0
 11 13  1  0
  8  9  1  0
  8  7  1  0
  7  6  1  0
 19 20  1  0
 20 21  2  0
 21 22  1  0
 19  1  2  0
 22  3  2  0
 12 13  2  0
 13 14  1  0
 14 15  2  0
 15 16  1  0
 12 17  1  0
 16 17  1  0
 24 25  1  0
 25 26  2  0
 23 26  1  0
 16 24  2  0
 23 17  2  0
 18 27  1  0
 27 28  2  0
 27 29  1  0
 27 30  2  0
  2 31  1  0
  4 32  1  0
  5 33  1  0
  8 34  1  0
  8 35  1  0
  9 36  1  0
 10 37  1  0
 10 38  1  0
 12 39  1  0
 14 40  1  0
 15 41  1  0
 19 42  1  0
 20 43  1  0
 21 44  1  0
 22 45  1  0
 23 46  1  0
 24 47  1  0
 25 48  1  0
 26 49  1  0
 29 50  1  0
 29 51  1  0
 29 52  1  0
M  END
> <Name>
ACO2009-23

> <Clean Energy>
18.491282

> <REMARK99>
REMARK  99  MacroMolecule created from Mol2 file
REMARK  99  ACO2009 - Intermediário - (23)
REMARK  99  PROTEIN
REMARK  99  USER_CHARGES
REMARK  99  
REMARK  99  

$$$$
ACO2009-24
  SciTegic12132405553D

 47 50  0  0  0  0            999 V2000
   -6.9191   -1.8820    0.0907 C   0  0
   -5.6061   -1.2639    0.1880 C   0  0
   -7.0149   -3.3159   -0.0887 C   0  0
   -5.7958   -4.1010   -0.1689 C   0  0
   -4.6053   -3.5045   -0.0779 C   0  0
   -4.4991   -2.0070    0.1113 C   0  0
   -3.2526   -1.3233    0.2147 O   0  0
   -2.0780   -2.1572    0.1150 C   0  0
   -0.7985   -1.2877    0.2461 C   0  0
    0.4708   -2.1757    0.1442 C   0  0
    1.6399   -1.3506    0.2706 O   0  0
    3.9839   -1.2706    0.2624 C   0  0
    2.8857   -2.0224    0.1684 C   0  0
    3.0040   -3.5130   -0.0423 C   0  0
    4.1999   -4.0988   -0.1338 C   0  0
    5.4121   -3.3037   -0.0340 C   0  0
    5.3009   -1.8738    0.1643 C   0  0
   -8.0221   -1.1387    0.1655 C   0  0
   -9.3387   -1.7759    0.0662 C   0  0
   -9.4270   -3.0953   -0.0981 C   0  0
   -8.2066   -3.9041   -0.1795 C   0  0
    6.3938   -1.1192    0.2545 C   0  0
    6.6105   -3.8781   -0.1255 C   0  0
    7.8220   -3.0570   -0.0257 C   0  0
    7.7183   -1.7405    0.1549 C   0  0
   -0.7721   -0.3027   -0.8020 N   0  0
    0.2121    0.3142   -1.0114 N   0  0
    1.1967    0.9312   -1.2208 N   0  0
   -5.5272   -0.2108    0.3205 H   0  0
   -5.8508   -5.1543   -0.3008 H   0  0
   -3.7361   -4.1051   -0.1403 H   0  0
   -2.0714   -2.6652   -0.8599 H   0  0
   -2.0884   -2.9033    0.9196 H   0  0
   -0.7968   -0.7793    1.2210 H   0  0
    0.4802   -2.6787   -0.8330 H   0  0
    0.4598   -2.9262    0.9468 H   0  0
    3.8933   -0.2198    0.4080 H   0  0
    2.1394   -4.1168   -0.1201 H   0  0
    4.2647   -5.1496   -0.2813 H   0  0
   -7.9480   -0.0862    0.2968 H   0  0
  -10.2207   -1.1869    0.1252 H   0  0
  -10.3807   -3.5605   -0.1703 H   0  0
   -8.2737   -4.9571   -0.3112 H   0  0
    6.3047   -0.0688    0.3983 H   0  0
    6.6896   -4.9284   -0.2715 H   0  0
    8.7811   -3.5109   -0.0982 H   0  0
    8.5935   -1.1428    0.2269 H   0  0
  1  2  1  0
  3  4  1  0
  4  5  2  0
  5  6  1  0
  1  3  1  0
  2  6  2  0
  9 10  1  0
 10 11  1  0
 11 13  1  0
  8  9  1  0
  8  7  1  0
  7  6  1  0
 18 19  1  0
 19 20  2  0
 20 21  1  0
 18  1  2  0
 21  3  2  0
 12 13  2  0
 13 14  1  0
 14 15  2  0
 15 16  1  0
 12 17  1  0
 16 17  1  0
 23 24  1  0
 24 25  2  0
 22 25  1  0
 16 23  2  0
 22 17  2  0
  9 26  1  0
 26 27  2  0
 27 28  2  0
  2 29  1  0
  4 30  1  0
  5 31  1  0
  8 32  1  0
  8 33  1  0
  9 34  1  0
 10 35  1  0
 10 36  1  0
 12 37  1  0
 14 38  1  0
 15 39  1  0
 18 40  1  0
 19 41  1  0
 20 42  1  0
 21 43  1  0
 22 44  1  0
 23 45  1  0
 24 46  1  0
 25 47  1  0
M  END
> <Name>
ACO2009-24

> <Clean Energy>
25.380659

> <REMARK99>
REMARK  99  MacroMolecule created from Mol2 file
REMARK  99  ACO2009 - Intermediário - (24)
REMARK  99  PROTEIN
REMARK  99  USER_CHARGES
REMARK  99  
REMARK  99  

$$$$
ACO2009-25
  SciTegic12132405553D

 48 51  0  0  0  0            999 V2000
   -6.8242   -1.6671   -1.1515 C   0  0
   -5.4957   -1.1846   -1.4871 C   0  0
   -6.9662   -2.8157   -0.2828 C   0  0
   -5.7766   -3.4617    0.2334 C   0  0
   -4.5667   -3.0005   -0.0881 C   0  0
   -4.4042   -1.7923   -0.9976 C   0  0
   -3.1089   -1.2620   -1.3715 O   0  0
   -1.9790   -1.9777   -0.8312 C   0  0
   -0.6848   -1.3075   -1.3635 C   0  0
    0.5848   -2.0154   -0.8206 C   0  0
    1.7396   -1.3334   -1.3516 O   0  0
    4.1285   -1.3262   -1.4477 C   0  0
    3.0157   -1.9015   -0.9672 C   0  0
    3.1351   -3.1138   -0.0565 C   0  0
    4.3282   -3.6105    0.2747 C   0  0
    5.5405   -2.9998   -0.2316 C   0  0
    5.4395   -1.8476   -1.1012 C   0  0
   -7.9035   -1.0571   -1.6396 C   0  0
   -9.2398   -1.5511   -1.2948 C   0  0
   -9.3702   -2.6085   -0.4949 C   0  0
   -8.1762   -3.2726    0.0364 C   0  0
    6.5402   -1.2696   -1.5804 C   0  0
    6.7339   -3.4921    0.0975 C   0  0
    7.9513   -2.8634   -0.4239 C   0  0
    7.8585   -1.8027   -1.2247 C   0  0
   -0.6658    0.0931   -0.9542 N   0  0
   -5.3986   -0.3419   -2.1297 H   0  0
   -5.8673   -4.3077    0.8709 H   0  0
   -3.7219   -3.5003    0.3082 H   0  0
   -2.0090   -3.0314   -1.1605 H   0  0
   -2.0052   -1.9361    0.2698 H   0  0
   -0.6810   -1.3585   -2.4630 H   0  0
    0.5865   -3.0696   -1.1499 H   0  0
    0.6032   -1.9745    0.2805 H   0  0
    4.0616   -0.4811   -2.0909 H   0  0
    2.2728   -3.5885    0.3327 H   0  0
    4.3888   -4.4586    0.9129 H   0  0
   -7.7959   -0.2133   -2.2777 H   0  0
  -10.1025   -1.0671   -1.6820 H   0  0
  -10.3383   -2.9698   -0.2426 H   0  0
   -8.2766   -4.1170    0.6747 H   0  0
    6.4628   -0.4231   -2.2192 H   0  0
    6.8042   -4.3390    0.7364 H   0  0
    8.9062   -3.2530   -0.1637 H   0  0
    8.7383   -1.3443   -1.6047 H   0  0
   -0.6690    0.1629    0.0724 H   0  0
    0.1959    0.5388   -1.3298 H   0  0
   -1.5110    0.5640   -1.3368 H   0  0
  1  2  1  0
  3  4  1  0
  4  5  2  0
  5  6  1  0
  1  3  1  0
  2  6  2  0
  9 10  1  0
 10 11  1  0
 11 13  1  0
  8  9  1  0
  8  7  1  0
  7  6  1  0
 18 19  1  0
 19 20  2  0
 20 21  1  0
 18  1  2  0
 21  3  2  0
 12 13  2  0
 13 14  1  0
 14 15  2  0
 15 16  1  0
 12 17  1  0
 16 17  1  0
 23 24  1  0
 24 25  2  0
 22 25  1  0
 16 23  2  0
 22 17  2  0
  9 26  1  0
  2 27  1  0
  4 28  1  0
  5 29  1  0
  8 30  1  0
  8 31  1  0
  9 32  1  0
 10 33  1  0
 10 34  1  0
 12 35  1  0
 14 36  1  0
 15 37  1  0
 18 38  1  0
 19 39  1  0
 20 40  1  0
 21 41  1  0
 22 42  1  0
 23 43  1  0
 24 44  1  0
 25 45  1  0
 26 46  1  0
 26 47  1  0
 26 48  1  0
M  END
> <Name>
ACO2009-25

> <Clean Energy>
20.086325

> <REMARK99>
REMARK  99  MacroMolecule created from Mol2 file
REMARK  99  ACO2009 - Intermediário - (25)
REMARK  99  PROTEIN
REMARK  99  USER_CHARGES
REMARK  99  
REMARK  99  

$$$$
ACO2009-26
  SciTegic12132405553D

 60 64  0  0  0  0            999 V2000
   -7.0945   -2.0449    0.3174 C   0  0
   -5.8183   -1.3831    0.0882 C   0  0
   -7.1056   -3.4174    0.7749 C   0  0
   -5.8413   -4.0940    1.0049 C   0  0
   -4.6888   -3.4534    0.7970 C   0  0
   -4.6692   -2.0280    0.3124 C   0  0
   -3.4604   -1.3160    0.0647 O   0  0
   -2.2394   -2.0128    0.3945 C   0  0
   -0.9951   -1.1650   -0.0361 C   0  0
    0.2774   -1.9452    0.3642 C   0  0
    1.4526   -1.1962   -0.0003 O   0  0
    3.8181   -1.1920   -0.0076 C   0  0
    2.6931   -1.8624    0.2599 C   0  0
    2.7693   -3.2731    0.8083 C   0  0
    3.9463   -3.8637    1.0242 C   0  0
    5.1818   -3.1565    0.7445 C   0  0
    5.1187   -1.8046    0.2289 C   0  0
   -8.2388   -1.3958    0.1084 C   0  0
   -9.5158   -2.0773    0.3391 C   0  0
   -9.5268   -3.3434    0.7543 C   0  0
   -8.2607   -4.0474    0.9837 C   0  0
    6.2394   -1.1307   -0.0262 C   0  0
    6.3595   -3.7403    0.9614 C   0  0
    7.5984   -3.0086    0.6818 C   0  0
    7.5412   -1.7627    0.2128 C   0  0
   -1.0072    0.1423    0.5868 N   0  0
   -1.8954    5.1706    1.2239 C   0  0
   -2.5692    4.7412    0.0108 C   0  0
   -2.4951    3.4729   -0.3715 C   0  0
   -1.7365    2.5016    0.4279 C   0  0
   -1.1220    2.8986    1.5402 C   0  0
   -1.2066    4.2972    1.9546 C   0  0
   -1.6748    1.1155   -0.0435 C   0  0
   -2.2618    0.8379   -1.0903 O   0  0
   -1.9721    6.5203    1.6227 C   0  0
   -2.0347    7.6203    1.9476 N   0  0
   -5.8017   -0.3764   -0.2566 H   0  0
   -5.8328   -5.1026    1.3405 H   0  0
   -3.7874   -3.9726    0.9701 H   0  0
   -2.2045   -2.9762   -0.1326 H   0  0
   -2.2126   -2.1857    1.4792 H   0  0
   -1.0388   -1.0216   -1.1256 H   0  0
    0.2820   -2.1077    1.4515 H   0  0
    0.2736   -2.9165   -0.1533 H   0  0
    3.7654   -0.2024   -0.3939 H   0  0
    1.8891   -3.8189    1.0227 H   0  0
    3.9778   -4.8562    1.4038 H   0  0
   -8.2261   -0.3863   -0.2256 H   0  0
  -10.4308   -1.5633    0.1742 H   0  0
  -10.4517   -3.8413    0.9212 H   0  0
   -8.2658   -5.0565    1.3185 H   0  0
    6.1905   -0.1377   -0.4028 H   0  0
    6.4016   -4.7335    1.3390 H   0  0
    8.5410   -3.4702    0.8550 H   0  0
    8.4372   -1.2287    0.0112 H   0  0
   -0.5008    0.3149    1.4294 H   0  0
   -3.1171    5.4393   -0.5687 H   0  0
   -2.9842    3.1623   -1.2574 H   0  0
   -0.5729    2.2112    2.1199 H   0  0
   -0.7184    4.6159    2.8331 H   0  0
  1  2  1  0
  3  4  1  0
  4  5  2  0
  5  6  1  0
  1  3  1  0
  2  6  2  0
  9 10  1  0
 10 11  1  0
 11 13  1  0
  8  9  1  0
  8  7  1  0
  7  6  1  0
 18 19  1  0
 19 20  2  0
 20 21  1  0
 18  1  2  0
 21  3  2  0
 12 13  2  0
 13 14  1  0
 14 15  2  0
 15 16  1  0
 12 17  1  0
 16 17  1  0
 23 24  1  0
 24 25  2  0
 22 25  1  0
 16 23  2  0
 22 17  2  0
  9 26  1  0
 27 28  1  0
 28 29  2  0
 29 30  1  0
 30 31  2  0
 31 32  1  0
 27 32  2  0
 26 33  1  0
 33 30  1  0
 33 34  2  0
 27 35  1  0
 35 36  3  0
  2 37  1  0
  4 38  1  0
  5 39  1  0
  8 40  1  0
  8 41  1  0
  9 42  1  0
 10 43  1  0
 10 44  1  0
 12 45  1  0
 14 46  1  0
 15 47  1  0
 18 48  1  0
 19 49  1  0
 20 50  1  0
 21 51  1  0
 22 52  1  0
 23 53  1  0
 24 54  1  0
 25 55  1  0
 26 56  1  0
 28 57  1  0
 29 58  1  0
 31 59  1  0
 32 60  1  0
M  END
> <Name>
ACO2009-26

> <Clean Energy>
15.879131

> <REMARK99>
REMARK  99  MacroMolecule created from Mol2 file
REMARK  99  ACO2009 - Intermediário - (26)
REMARK  99  PROTEIN
REMARK  99  USER_CHARGES
REMARK  99  
REMARK  99  

$$$$
ACO2009-2
  SciTegic12132405553D

 34 35  0  0  0  0            999 V2000
  -13.6018    1.4470   -0.2180 C   0  0
  -14.8730    0.7502   -0.0603 C   0  0
  -14.8926   -0.5667    0.1386 C   0  0
  -13.6313   -1.3091    0.1988 C   0  0
  -12.4727   -0.6710    0.0548 C   0  0
  -12.4582    0.7708   -0.1638 C   0  0
   -6.6097    1.2834    0.7676 C   0  0
   -7.6053    0.8336   -0.2113 C   0  0
   -7.4090   -0.2993   -0.8851 C   0  0
   -6.1959   -1.0968   -0.6457 C   0  0
   -5.2920   -0.6859    0.2437 C   0  0
   -5.5095    0.5617    0.9841 C   0  0
  -11.2072    1.4941   -0.3270 C   0  0
  -10.0306    0.8785   -0.2876 N   0  0
   -8.8405    1.6635   -0.4578 C   0  0
  -11.2438    2.7119   -0.5083 O   0  0
  -16.1755   -1.2696    0.2962 C   0  0
  -17.2704   -0.6237    0.2442 N   0  0
  -16.2077   -2.6617    0.5053 N   0  0
  -13.5865    2.4949   -0.3772 H   0  0
  -15.7804    1.2926   -0.1049 H   0  0
  -13.6396   -2.3510    0.3565 H   0  0
  -11.5663   -1.2086    0.0989 H   0  0
   -6.7654    2.1869    1.3035 H   0  0
   -8.1263   -0.6238   -1.5969 H   0  0
   -6.0375   -2.0008   -1.1837 H   0  0
   -4.4098   -1.2636    0.4167 H   0  0
   -4.7876    0.8909    1.6939 H   0  0
   -9.9753   -0.1008   -0.1424 H   0  0
   -8.8504    1.9820   -1.5105 H   0  0
   -8.8726    2.5558    0.1861 H   0  0
  -17.2843    0.3621    0.0974 H   0  0
  -17.0885   -3.1314    0.6111 H   0  0
  -15.3632   -3.1850    0.5487 H   0  0
  1  2  1  0
  2  3  2  0
  3  4  1  0
  4  5  2  0
  5  6  1  0
  1  6  2  0
  7  8  1  0
  8  9  2  0
  9 10  1  0
 10 11  2  0
 11 12  1  0
  7 12  2  0
  6 13  1  0
 14 13  1  0
 15 14  1  0
  8 15  1  0
 16 13  2  0
 18 17  2  0
 19 17  1  0
 17  3  1  0
  1 20  1  0
  2 21  1  0
  4 22  1  0
  5 23  1  0
  7 24  1  0
  9 25  1  0
 10 26  1  0
 11 27  1  0
 12 28  1  0
 14 29  1  0
 15 30  1  0
 15 31  1  0
 18 32  1  0
 19 33  1  0
 19 34  1  0
M  END
> <Name>
ACO2009-2

> <Clean Energy>
22.9019908905029

> <REMARK99>
REMARK  99  MacroMolecule created from Mol2 file
REMARK  99  ACO2009 - Produto - (2)
REMARK  99  PROTEIN
REMARK  99  USER_CHARGES
REMARK  99  
REMARK  99  

$$$$
ACO2009-7
  SciTegic12132405553D

 64 68  0  0  0  0            999 V2000
  -18.9682    2.5070    0.2055 C   0  0
  -19.6156    1.4216   -0.5298 C   0  0
  -19.2803    0.1576   -0.2837 C   0  0
  -18.2607   -0.1511    0.7235 C   0  0
  -17.6710    0.8390    1.3902 C   0  0
  -18.0419    2.2240    1.1197 C   0  0
  -22.8066   -3.7984    1.5403 C   0  0
  -23.8616   -4.3594    2.4136 C   0  0
  -23.5600   -4.9013    3.5953 C   0  0
  -22.1786   -4.9475    4.0451 C   0  0
  -21.1482   -4.3949    3.1951 C   0  0
  -21.5261   -3.8167    1.9126 C   0  0
  -21.8658   -5.4888    5.2192 C   0  0
  -20.4735   -5.5286    5.6563 C   0  0
  -19.5166   -5.0218    4.8812 C   0  0
  -19.8726   -4.4154    3.5710 C   0  0
  -11.7582   -1.1191   -1.1694 C   0  0
  -12.5968   -1.6563   -0.2823 C   0  0
  -12.0824   -2.2221    0.9595 C   0  0
  -10.6588   -2.1902    1.2040 C   0  0
   -9.7868   -1.5929    0.2056 C   0  0
  -10.3013   -1.0858   -0.9163 C   0  0
  -12.9138   -2.7593    1.8489 C   0  0
  -12.3506   -3.3332    3.1099 C   0  0
  -11.0366   -3.2964    3.3203 C   0  0
  -10.1530   -2.6989    2.3244 C   0  0
  -17.9010   -1.5505    0.9764 C   0  0
  -18.9236   -3.8548    2.6897 O   0  0
  -17.5490   -3.9191    3.1277 C   0  0
  -16.9615   -1.8821    1.8606 N   0  0
  -16.6178   -3.2697    2.0547 C   0  0
  -15.1515   -3.3542    2.5328 C   0  0
  -14.2951   -2.7529    1.5388 O   0  0
  -18.4779   -2.4403    0.3496 O   0  0
  -18.7730    4.8505    0.5778 N   0  0
  -20.3144    4.2168   -1.0265 N   0  0
  -19.3366    3.9061   -0.0621 C   0  0
  -20.3514    1.6413   -1.2590 H   0  0
  -19.7497   -0.6267   -0.8184 H   0  0
  -16.9339    0.6259    2.1155 H   0  0
  -17.5726    3.0030    1.6515 H   0  0
  -23.0721   -3.3766    0.6035 H   0  0
  -24.8737   -4.3313    2.0945 H   0  0
  -24.3267   -5.2985    4.2059 H   0  0
  -20.7815   -3.4127    1.2724 H   0  0
  -22.6237   -5.8909    5.8356 H   0  0
  -20.2237   -5.9622    6.5927 H   0  0
  -18.5150   -5.0585    5.2110 H   0  0
  -12.1428   -0.7100   -2.0703 H   0  0
  -13.6391   -1.6719   -0.4817 H   0  0
   -8.7425   -1.5607    0.3696 H   0  0
   -9.6551   -0.6522   -1.6384 H   0  0
  -12.9757   -3.7706    3.8436 H   0  0
  -10.6309   -3.7022    4.2136 H   0  0
   -9.1108   -2.6709    2.4943 H   0  0
  -17.2623   -4.9722    3.2624 H   0  0
  -17.4386   -3.3820    4.0792 H   0  0
  -16.4783   -1.1806    2.3690 H   0  0
  -16.7526   -3.8130    1.1077 H   0  0
  -14.8740   -4.4103    2.6742 H   0  0
  -15.0470   -2.8138    3.4837 H   0  0
  -18.0770    4.6665    1.2671 H   0  0
  -20.5582    5.1748   -1.2011 H   0  0
  -20.7669    3.4935   -1.5376 H   0  0
  1  2  1  0
  2  3  2  0
  3  4  1  0
  4  5  2  0
  5  6  1  0
  1  6  2  0
  7  8  1  0
  8  9  2  0
  9 10  1  0
 10 11  1  0
 11 12  1  0
  7 12  2  0
 13 14  1  0
 14 15  2  0
 15 16  1  0
 10 13  2  0
 11 16  2  0
 17 18  2  0
 18 19  1  0
 19 20  1  0
 20 21  1  0
 21 22  2  0
 17 22  1  0
 23 24  1  0
 24 25  2  0
 25 26  1  0
 19 23  2  0
 26 20  2  0
 37  1  1  0
 37 36  1  0
 37 35  2  0
  4 27  1  0
 27 30  1  0
 30 31  1  0
 31 29  1  0
 29 28  1  0
 28 16  1  0
 31 32  1  0
 32 33  1  0
 33 23  1  0
 27 34  2  0
  2 38  1  0
  3 39  1  0
  5 40  1  0
  6 41  1  0
  7 42  1  0
  8 43  1  0
  9 44  1  0
 12 45  1  0
 13 46  1  0
 14 47  1  0
 15 48  1  0
 17 49  1  0
 18 50  1  0
 21 51  1  0
 22 52  1  0
 24 53  1  0
 25 54  1  0
 26 55  1  0
 29 56  1  0
 29 57  1  0
 30 58  1  0
 31 59  1  0
 32 60  1  0
 32 61  1  0
 35 62  1  0
 36 63  1  0
 36 64  1  0
M  END
> <Name>
ACO2009-7

> <Clean Energy>
11.0859842300415

> <REMARK99>
REMARK  99  MacroMolecule created from Mol2 file
REMARK  99  ACO2009 - Produto - (7)
REMARK  99  PROTEIN
REMARK  99  USER_CHARGES
REMARK  99  
REMARK  99  

$$$$
ACO2009-8
  SciTegic12132405553D

 64 68  0  0  0  0            999 V2000
   -8.3520    0.3116    0.7066 C   0  0
   -9.5203   -0.2446    0.3784 C   0  0
   -9.5742   -1.5022   -0.4040 C   0  0
   -8.4556   -2.1127   -0.8015 C   0  0
   -7.1570   -1.5431   -0.4668 C   0  0
   -7.1051   -0.3175    0.2950 C   0  0
   -5.9345    0.2278    0.6161 C   0  0
   -6.0336   -2.1397   -0.8542 C   0  0
   -4.7342   -1.5540   -0.5095 C   0  0
   -4.6774   -0.4128    0.1975 C   0  0
   -3.4549    0.2248    0.5763 O   0  0
   -2.2324   -0.4251    0.1601 C   0  0
   -1.0091    0.3814    0.6773 C   0  0
    0.2836   -0.3177    0.2249 C   0  0
    1.4057    0.4367    0.7070 O   0  0
    3.7491    0.5799    0.8176 C   0  0
    2.6840   -0.0924    0.3752 C   0  0
    2.8692   -1.3561   -0.4364 C   0  0
    4.0896   -1.8145   -0.7211 C   0  0
    5.2658   -1.1028   -0.2529 C   0  0
    5.0946    0.1076    0.5251 C   0  0
    6.1576    0.7782    0.9665 C   0  0
    6.4868   -1.5552   -0.5335 C   0  0
    7.6633   -0.8246   -0.0526 C   0  0
    7.5063    0.2884    0.6631 C   0  0
   -1.0349    1.7172    0.1445 N   0  0
   -1.5942    2.6826    0.8672 C   0  0
   -2.0802    2.3971    1.9614 O   0  0
   -1.7721    6.7372   -0.4295 C   0  0
   -1.1692    5.7203   -1.2945 C   0  0
   -1.1096    4.4522   -0.8975 C   0  0
   -1.6462    4.0698    0.4063 C   0  0
   -2.1929    4.9945    1.1941 C   0  0
   -2.2597    6.3860    0.7584 C   0  0
   -1.8375    8.1382   -0.8750 C   0  0
   -1.3669    8.4693   -2.0095 N   0  0
   -2.4199    9.1273   -0.0564 N   0  0
   -8.3316    1.2139    1.2682 H   0  0
  -10.4255    0.2215    0.6829 H   0  0
  -10.5184   -1.9247   -0.6525 H   0  0
   -8.5131   -3.0145   -1.3620 H   0  0
   -5.9088    1.1304    1.1794 H   0  0
   -6.0762   -3.0422   -1.4145 H   0  0
   -3.8587   -2.0464   -0.8273 H   0  0
   -2.1966   -1.4406    0.5805 H   0  0
   -2.2000   -0.4784   -0.9365 H   0  0
   -1.0618    0.4286    1.7753 H   0  0
    0.3119   -0.3630   -0.8724 H   0  0
    0.3118   -1.3371    0.6396 H   0  0
    3.6111    1.4679    1.3903 H   0  0
    2.0328   -1.8985   -0.7925 H   0  0
    4.2003   -2.7039   -1.2926 H   0  0
    6.0290    1.6659    1.5373 H   0  0
    6.6087   -2.4438   -1.1046 H   0  0
    8.6402   -1.1822   -0.2742 H   0  0
    8.3568    0.8201    1.0131 H   0  0
   -0.6222    1.9131   -0.7383 H   0  0
   -0.7817    5.9924   -2.2359 H   0  0
   -0.6756    3.7246   -1.5268 H   0  0
   -2.5813    4.7200    2.1407 H   0  0
   -2.6967    7.1153    1.3881 H   0  0
   -0.9487    7.7954   -2.6130 H   0  0
   -2.4584   10.0789   -0.3728 H   0  0
   -2.7951    8.8902    0.8340 H   0  0
  1  2  2  0
  2  3  1  0
  3  4  2  0
  4  5  1  0
  5  6  1  0
  1  6  1  0
  8  9  1  0
  9 10  2  0
  7 10  1  0
  5  8  2  0
  7  6  2  0
 16 17  2  0
 17 18  1  0
 18 19  2  0
 19 20  1  0
 20 21  1  0
 16 21  1  0
 23 24  1  0
 24 25  2  0
 22 25  1  0
 20 23  2  0
 22 21  2  0
 29 30  1  0
 30 31  2  0
 31 32  1  0
 32 33  2  0
 33 34  1  0
 29 34  2  0
 37 35  1  0
 35 29  1  0
 32 27  1  0
 27 26  1  0
 26 13  1  0
 13 14  1  0
 14 15  1  0
 15 17  1  0
 13 12  1  0
 12 11  1  0
 11 10  1  0
 27 28  2  0
 35 36  2  0
  1 38  1  0
  2 39  1  0
  3 40  1  0
  4 41  1  0
  7 42  1  0
  8 43  1  0
  9 44  1  0
 12 45  1  0
 12 46  1  0
 13 47  1  0
 14 48  1  0
 14 49  1  0
 16 50  1  0
 18 51  1  0
 19 52  1  0
 22 53  1  0
 23 54  1  0
 24 55  1  0
 25 56  1  0
 26 57  1  0
 30 58  1  0
 31 59  1  0
 33 60  1  0
 34 61  1  0
 36 62  1  0
 37 63  1  0
 37 64  1  0
M  END
> <Name>
ACO2009-8

> <Clean Energy>
25.161549

> <REMARK99>
REMARK  99  MacroMolecule created from Mol2 file
REMARK  99  ACO2009 - Produto - (8)
REMARK  99  PROTEIN
REMARK  99  USER_CHARGES
REMARK  99  
REMARK  99  

$$$$
ACO2009-27
  SciTegic12132405553D

 35 36  0  0  0  0            999 V2000
   -7.2837    1.5839   -0.0683 C   0  0
   -8.5569    0.8776   -0.0633 C   0  0
   -8.6054   -0.4560   -0.0273 C   0  0
   -7.3234   -1.2025    0.0083 C   0  0
   -6.1649   -0.5489    0.0037 C   0  0
   -6.1428    0.9053   -0.0365 C   0  0
    0.0447    1.8882    0.0655 C   0  0
   -1.2061    1.1266   -0.0052 C   0  0
   -1.1642   -0.2062   -0.0523 C   0  0
    0.1316   -0.9048   -0.0323 C   0  0
    1.2642   -0.2070    0.0322 C   0  0
    1.2174    1.2555    0.0832 C   0  0
   -4.8895    1.6486   -0.0437 C   0  0
   -4.9364    2.8786   -0.0790 O   0  0
   -3.7020    1.0490   -0.0141 N   0  0
   -2.5236    1.8816   -0.0252 C   0  0
  -10.0052   -1.0524   -0.0275 C   0  0
  -10.9114   -0.2183   -0.0595 O   0  0
  -10.4441   -2.4453    0.0032 O   0  0
   -9.5218   -3.5428    0.0411 C   0  0
   -7.2644    2.6454   -0.0976 H   0  0
   -9.4613    1.4313   -0.0892 H   0  0
   -7.3147   -2.2431    0.0374 H   0  0
   -5.2648   -1.0880    0.0291 H   0  0
    0.0155    2.9490    0.1025 H   0  0
   -2.0593   -0.7629   -0.1045 H   0  0
    0.1661   -1.9683   -0.0695 H   0  0
    2.2040   -0.7126    0.0465 H   0  0
    2.1192    1.8129    0.1342 H   0  0
   -3.6314    0.0629    0.0148 H   0  0
   -2.5533    2.5845    0.8210 H   0  0
   -2.5480    2.5340   -0.9109 H   0  0
  -10.0852   -4.4910    0.0590 H   0  0
   -8.8815   -3.5162   -0.8515 H   0  0
   -8.9010   -3.4706    0.9448 H   0  0
  1  2  1  0
  2  3  2  0
  3  4  1  0
  4  5  2  0
  5  6  1  0
  1  6  2  0
  7  8  1  0
  8  9  2  0
  9 10  1  0
 10 11  2  0
 11 12  1  0
  7 12  2  0
  6 13  1  0
 13 15  1  0
 15 16  1  0
 16  8  1  0
  3 17  1  0
 13 14  2  0
 17 18  2  0
 17 19  1  0
 19 20  1  0
  1 21  1  0
  2 22  1  0
  4 23  1  0
  5 24  1  0
  7 25  1  0
  9 26  1  0
 10 27  1  0
 11 28  1  0
 12 29  1  0
 15 30  1  0
 16 31  1  0
 16 32  1  0
 20 33  1  0
 20 34  1  0
 20 35  1  0
M  END
> <Name>
ACO2009-27

> <Clean Energy>
25.483866

> <REMARK99>
REMARK  99  MacroMolecule created from Mol2 file
REMARK  99  ACO2009 - Subproduto de 2 - (27)
REMARK  99  PROTEIN
REMARK  99  USER_CHARGES
REMARK  99  
REMARK  99  

$$$$
ACO2009-28
  SciTegic12132405553D

 65 69  0  0  0  0            999 V2000
   -2.2725    1.2364    1.5588 C   0  0
   -3.5497    0.5878    1.1889 C   0  0
   -3.5677   -0.5245    0.4522 C   0  0
   -2.3215   -1.1187   -0.0020 C   0  0
   -1.0728   -0.4818    0.3526 C   0  0
   -1.1045    0.7289    1.1618 C   0  0
   -2.3287   -2.2304   -0.7323 C   0  0
   -1.0700   -2.8167   -1.1802 C   0  0
    0.0860   -2.2388   -0.8605 C   0  0
    0.0890   -0.9931   -0.0463 C   0  0
    1.2701   -0.3158    0.3337 O   0  0
    2.5033   -0.9338   -0.0969 C   0  0
    3.7245   -0.0884    0.3852 C   0  0
    5.0283   -0.7782   -0.0743 C   0  0
    6.1631   -0.0007    0.3721 O   0  0
    8.5986    0.2643    0.4841 C   0  0
    7.4509   -0.5058    0.0283 C   0  0
    7.6567   -1.6348   -0.6802 C   0  0
    9.0261   -2.0936   -0.9983 C   0  0
   10.0952   -1.4090   -0.5963 C   0  0
    9.9313   -0.1912    0.1683 C   0  0
    9.5807    2.1490    1.6444 C   0  0
    8.4209    1.3808    1.1899 C   0  0
   10.9930    0.4997    0.5768 C   0  0
   10.8098    1.7285    1.3514 C   0  0
    3.6752    1.2410   -0.1813 N   0  0
    2.8252    6.2301   -1.0232 C   0  0
    2.1708    5.8546    0.2517 C   0  0
    2.2364    4.6030    0.6937 C   0  0
    2.9533    3.5810   -0.0671 C   0  0
    3.5464    3.9093   -1.2105 C   0  0
    3.4761    5.2816   -1.7014 C   0  0
    3.0092    2.2067    0.4518 C   0  0
    2.8409    7.6098   -1.6649 C   0  0
    2.2431    8.8684   -1.2260 O   0  0
    2.4284    1.9431    1.5052 O   0  0
    3.4596    7.6667   -2.7288 O   0  0
    1.4869    8.9808   -0.0125 C   0  0
   -2.2856    2.1174    2.1500 H   0  0
   -4.4657    1.0131    1.5161 H   0  0
   -4.4901   -0.9756    0.1984 H   0  0
   -0.1980    1.2048    1.4394 H   0  0
   -3.2448   -2.6901   -0.9875 H   0  0
   -1.0761   -3.7052   -1.7615 H   0  0
    0.9873   -2.6760   -1.1925 H   0  0
    2.5197   -1.0036   -1.1928 H   0  0
    2.5702   -1.9420    0.3383 H   0  0
    3.6846   -0.0186    1.4825 H   0  0
    5.0779   -1.7894    0.3594 H   0  0
    5.0377   -0.8460   -1.1709 H   0  0
    6.8464   -2.2185   -1.0261 H   0  0
    9.1597   -2.9861   -1.5584 H   0  0
   11.0628   -1.7561   -0.8356 H   0  0
    9.4419    3.0388    2.2060 H   0  0
    7.4397    1.7134    1.4231 H   0  0
   11.9675    0.1606    0.3426 H   0  0
   11.6542    2.2824    1.6790 H   0  0
    4.1582    1.4324   -1.0267 H   0  0
    1.6526    6.5656    0.8168 H   0  0
    1.7676    4.3482    1.6028 H   0  0
    4.0695    3.1779   -1.7676 H   0  0
    3.9496    5.5296   -2.6125 H   0  0
    1.1393   10.0213    0.1046 H   0  0
    2.1212    8.7101    0.8428 H   0  0
    0.6182    8.3094   -0.0569 H   0  0
  1  2  1  0
  2  3  2  0
  3  4  1  0
  4  5  1  0
  5  6  1  0
  1  6  2  0
  7  8  1  0
  8  9  2  0
  9 10  1  0
  4  7  2  0
  5 10  2  0
 16 17  1  0
 17 18  2  0
 18 19  1  0
 19 20  2  0
 20 21  1  0
 16 21  1  0
 22 23  1  0
 24 25  1  0
 22 25  2  0
 23 16  2  0
 21 24  2  0
 26 13  1  0
 13 14  1  0
 14 15  1  0
 15 17  1  0
 12 13  1  0
 12 11  1  0
 11 10  1  0
 27 28  1  0
 28 29  2  0
 29 30  1  0
 30 31  2  0
 31 32  1  0
 27 32  2  0
 26 33  1  0
 33 30  1  0
 27 34  1  0
 33 36  2  0
 34 37  2  0
 34 35  1  0
 35 38  1  0
  1 39  1  0
  2 40  1  0
  3 41  1  0
  6 42  1  0
  7 43  1  0
  8 44  1  0
  9 45  1  0
 12 46  1  0
 12 47  1  0
 13 48  1  0
 14 49  1  0
 14 50  1  0
 18 51  1  0
 19 52  1  0
 20 53  1  0
 22 54  1  0
 23 55  1  0
 24 56  1  0
 25 57  1  0
 26 58  1  0
 28 59  1  0
 29 60  1  0
 31 61  1  0
 32 62  1  0
 38 63  1  0
 38 64  1  0
 38 65  1  0
M  END
> <Name>
ACO2009-28

> <Clean Energy>
13.797043

> <REMARK99>
REMARK  99  MacroMolecule created from Mol2 file
REMARK  99  ACO2009 - Subproduto de 7 - (28)
REMARK  99  PROTEIN
REMARK  99  USER_CHARGES
REMARK  99  
REMARK  99  

$$$$
ACO2009-29
  DSViewer          3D                             0

 65 69  0  0  0  0  0  0  0  0999 V2000
   -8.5510   -0.0303    0.6460 C   0  0
   -9.7145   -0.6198    0.3625 C   0  0
   -9.7585   -1.9212   -0.3452 C   0  0
   -8.6354   -2.5391   -0.7180 C   0  0
   -7.3414   -1.9341   -0.4301 C   0  0
   -7.2992   -0.6658    0.2588 C   0  0
   -6.1338   -0.0871    0.5362 C   0  0
   -6.2137   -2.5379   -0.7938 C   0  0
   -4.9186   -1.9171   -0.4971 C   0  0
   -4.8719   -0.7338    0.1431 C   0  0
   -3.6588   -0.0525    0.4760 O   0  0
   -2.4277   -0.7076    0.1005 C   0  0
   -1.2601    0.1832    0.5660 C   0  0
    0.0877   -0.4460    0.1861 C   0  0
    1.1163    0.4514    0.6384 O   0  0
    3.4244    0.8472    0.8046 C   0  0
    2.4502    0.0370    0.3838 C   0  0
    2.7917   -1.2551   -0.3250 C   0  0
    4.0620   -1.6026   -0.5404 C   0  0
    5.1417   -0.7394   -0.0941 C   0  0
    4.8195    0.4986    0.5858 C   0  0
    5.7911    1.3076    1.0055 C   0  0
    6.4122   -1.0793   -0.3055 C   0  0
    7.4893   -0.1958    0.1523 C   0  0
    7.1927    0.9429    0.7778 C   0  0
   -1.3601    1.4614   -0.0682 N   0  0
   -1.5584    2.5280    0.6937 C   0  0
   -1.6525    2.3821    1.9122 O   0  0
   -1.8910    6.5022   -0.7958 C   0  0
   -1.6888    5.3725   -1.7271 C   0  0
   -1.5830    4.1260   -1.2778 C   0  0
   -1.6669    3.8675    0.1481 C   0  0
   -1.8477    4.8716    0.9943 C   0  0
   -1.9649    6.2390    0.5139 C   0  0
   -1.9946    7.8713   -1.4518 C   0  0
   -1.8926    7.8479   -2.6794 O   0  0
   -2.1946    9.2029   -0.8680 O   0  0
   -2.3366    9.4320    0.5485 C   0  0
   -8.5377    0.9033    1.1542 H   0  0
  -10.6231   -0.1488    0.6487 H   0  0
  -10.6992   -2.3697   -0.5591 H   0  0
   -8.6861   -3.4725   -1.2248 H   0  0
   -6.1172    0.8463    1.0461 H   0  0
   -6.2499   -3.4719   -1.3005 H   0  0
   -4.0379   -2.4193   -0.7976 H   0  0
   -2.3598   -1.6905    0.5914 H   0  0
   -2.3888   -0.8332   -0.9900 H   0  0
   -1.3129    0.3085    1.6571 H   0  0
    0.1928   -1.4256    0.6773 H   0  0
    0.1487   -0.5668   -0.9040 H   0  0
    3.1801    1.7537    1.3047 H   0  0
    2.0274   -1.9062   -0.6626 H   0  0
    4.2836   -2.5141   -1.0403 H   0  0
    5.5509    2.2154    1.5042 H   0  0
    6.6457   -1.9885   -0.8047 H   0  0
    8.5052   -0.4630   -0.0143 H   0  0
    7.9705    1.5852    1.1108 H   0  0
   -1.2735    1.5426   -1.0530 H   0  0
   -1.6274    5.5570   -2.7677 H   0  0
   -1.4393    3.3284   -1.9576 H   0  0
   -1.9062    4.6735    2.0267 H   0  0
   -2.1065    7.0037    1.2062 H   0  0
   -2.4749   10.5100    0.7298 H   0  0
   -1.4325    9.0882    1.0702 H   0  0
   -3.2122    8.8845    0.9246 H   0  0
  1  2  2  0  0  0
  2  3  1  0  0  0
  3  4  2  0  0  0
  4  5  1  0  0  0
  5  6  1  0  0  0
  1  6  1  0  0  0
  8  9  1  0  0  0
  9 10  2  0  0  0
  7 10  1  0  0  0
  5  8  2  0  0  0
  7  6  2  0  0  0
 16 17  2  0  0  0
 17 18  1  0  0  0
 18 19  2  0  0  0
 19 20  1  0  0  0
 20 21  1  0  0  0
 16 21  1  0  0  0
 23 24  1  0  0  0
 24 25  2  0  0  0
 22 25  1  0  0  0
 20 23  2  0  0  0
 22 21  2  0  0  0
 29 30  1  0  0  0
 30 31  2  0  0  0
 31 32  1  0  0  0
 32 33  2  0  0  0
 33 34  1  0  0  0
 29 34  2  0  0  0
 37 35  1  0  0  0
 35 29  1  0  0  0
 32 27  1  0  0  0
 27 26  1  0  0  0
 26 13  1  0  0  0
 13 14  1  0  0  0
 14 15  1  0  0  0
 15 17  1  0  0  0
 13 12  1  0  0  0
 12 11  1  0  0  0
 11 10  1  0  0  0
 27 28  2  0  0  0
 35 36  2  0  0  0
 37 38  1  0  0  0
  1 39  1  0  0  0
  2 40  1  0  0  0
  3 41  1  0  0  0
  4 42  1  0  0  0
  7 43  1  0  0  0
  8 44  1  0  0  0
  9 45  1  0  0  0
 12 46  1  0  0  0
 12 47  1  0  0  0
 13 48  1  0  0  0
 14 49  1  0  0  0
 14 50  1  0  0  0
 16 51  1  0  0  0
 18 52  1  0  0  0
 19 53  1  0  0  0
 22 54  1  0  0  0
 23 55  1  0  0  0
 24 56  1  0  0  0
 25 57  1  0  0  0
 26 58  1  0  0  0
 30 59  1  0  0  0
 31 60  1  0  0  0
 33 61  1  0  0  0
 34 62  1  0  0  0
 38 63  1  0  0  0
 38 64  1  0  0  0
 38 65  1  0  0  0
M  END
> <Clean Energy>
3.44725e+06

> <REMARK99>
REMARK  99  MacroMolecule created from Mol2 file
REMARK  99  ACO2009 - Subproduto de 8 - (29)
REMARK  99  PROTEIN
REMARK  99  USER_CHARGES
REMARK  99  
REMARK  99

$$$$
GVLM2021_1
  SciTegic12132405553D

 65 66  0  0  0  0            999 V2000
    3.7222   -6.9254    0.9433 C   0  0
    6.1867   -6.9137    0.9952 C   0  0
    3.8055   -7.6513   -0.4132 C   0  0
    5.0356   -6.4185    1.4412 C   0  0
    5.0582   -5.3660    2.4997 C   0  0
    6.2356   -7.9438   -0.1032 C   0  0  2  0  0  0
    4.8664   -8.7278   -0.2774 C   0  0  2  0  0  0
    4.8569   -9.5953   -1.5320 C   0  0
    4.1666  -10.7310   -1.5090 C   0  0
    7.5639   -8.7357    0.0824 C   0  0
    9.9875   -8.5934   -0.1817 C   0  0
    9.0016  -10.6230    0.6970 C   0  0
   10.0957   -9.9629    0.3435 C   0  0
   11.4364  -10.6775    0.5074 C   0  0
   12.6644   -9.7970    0.2104 C   0  0
   13.9388  -10.6157    0.4049 C   0  0
   15.1460   -9.7239    0.1024 C   0  0
   16.4336  -10.5342    0.2952 C   0  0
    8.7877   -8.0087   -0.3139 C   0  0
    8.5911   -6.6554   -0.8146 O   0  0
    9.7267   -5.8672   -1.2904 C   0  0
   10.2828   -6.3924   -2.6482 C   0  0
    5.5829   -9.2110   -2.7973 C   0  0
    7.6476   -9.9904    0.5727 C   0  0
    6.4577  -10.6821    0.9622 O   0  0
    6.6190  -12.0175    1.4566 C   0  0
    5.2354  -12.5912    1.7931 C   0  0
    3.3823   -7.6597    1.6864 H   0  0
    2.9824   -6.1133    0.9320 H   0  0
    7.0949   -6.5390    1.3924 H   0  0
    4.0823   -6.9732   -1.2327 H   0  0
    2.8225   -8.0971   -0.6165 H   0  0
    6.0914   -5.0802    2.7447 H   0  0
    4.5388   -5.7499    3.3882 H   0  0
    4.4791   -4.4994    2.1504 H   0  0
    6.3870   -7.3263   -0.9959 H   0  0
    4.6056   -9.3467    0.5916 H   0  0
    3.6447  -11.0146   -0.6289 H   0  0
    4.1365  -11.3512   -2.3676 H   0  0
   10.8543   -8.0724   -0.4515 H   0  0
    9.1176  -11.6043    1.0714 H   0  0
   11.4868  -11.0746    1.5307 H   0  0
   11.4358  -11.5502   -0.1597 H   0  0
   12.6182   -9.4387   -0.8282 H   0  0
   12.6755   -8.9372    0.8951 H   0  0
   13.9934  -10.9725    1.4428 H   0  0
   13.9339  -11.4752   -0.2798 H   0  0
   15.0861   -9.3676   -0.9359 H   0  0
   15.1457   -8.8635    0.7865 H   0  0
   17.3034   -9.8974    0.0784 H   0  0
   16.4284  -11.3952   -0.3882 H   0  0
   16.4880  -10.8903    1.3338 H   0  0
    9.3808   -4.8374   -1.4568 H   0  0
   10.5188   -5.8583   -0.5270 H   0  0
   11.1221   -5.7577   -2.9666 H   0  0
    9.4875   -6.3551   -3.4057 H   0  0
   10.6323   -7.4264   -2.5373 H   0  0
    5.1704   -9.7588   -3.6558 H   0  0
    6.6414   -9.4882   -2.6782 H   0  0
    5.5434   -8.1224   -2.9435 H   0  0
    7.0926  -12.6426    0.6850 H   0  0
    7.2439  -12.0076    2.3611 H   0  0
    5.3456  -13.6176    2.1714 H   0  0
    4.6139  -12.5987    0.8848 H   0  0
    4.7565  -11.9656    2.5591 H   0  0
  1  4  1  0
  4  2  2  0
  2  6  1  0
  6  7  1  0
  7  3  1  0
  3  1  1  0
  4  5  1  0
  6 10  1  0
  7  8  1  0
  8 23  1  0
  8  9  2  0
 10 19  1  0
 19 11  2  0
 11 13  1  0
 13 12  2  0
 12 24  1  0
 24 10  2  0
 13 14  1  0
 14 15  1  0
 15 16  1  0
 16 17  1  0
 17 18  1  0
 19 20  1  0
 20 21  1  0
 21 22  1  0
 24 25  1  0
 25 26  1  0
 26 27  1  0
  1 28  1  0
  1 29  1  0
  2 30  1  0
  3 31  1  0
  3 32  1  0
  5 33  1  0
  5 34  1  0
  5 35  1  0
  6 36  1  0
  7 37  1  0
  9 38  1  0
  9 39  1  0
 11 40  1  0
 12 41  1  0
 14 42  1  0
 14 43  1  0
 15 44  1  0
 15 45  1  0
 16 46  1  0
 16 47  1  0
 17 48  1  0
 17 49  1  0
 18 50  1  0
 18 51  1  0
 18 52  1  0
 21 53  1  0
 21 54  1  0
 22 55  1  0
 22 56  1  0
 22 57  1  0
 23 58  1  0
 23 59  1  0
 23 60  1  0
 26 61  1  0
 26 62  1  0
 27 63  1  0
 27 64  1  0
 27 65  1  0
M  END
> <Name>
GVLM2021_1

> <Clean Energy>
86.8825

$$$$
GVLM2021_2
  SciTegic12132405553D

 77 78  0  0  0  0            999 V2000
    1.8557   -7.0639    0.9660 C   0  0
    4.3173   -7.1663    0.8957 C   0  0
    1.8396   -7.7227   -0.4261 C   0  0
    3.2136   -6.6419    1.4205 C   0  0
    3.3370   -5.6426    2.5226 C   0  0
    2.8534   -8.8533   -0.3999 C   0  0  1  0  0  0
    2.7350   -9.6467   -1.6984 C   0  0
    1.9830  -10.7427   -1.7035 C   0  0
    4.2663   -8.1432   -0.2543 C   0  0  2  0  0  0
    5.5702   -8.9987   -0.1795 C   0  0
    7.9919   -8.9146   -0.5019 C   0  0
    6.9607  -10.9839    0.2037 C   0  0
    6.8137   -8.2752   -0.5275 C   0  0
    6.6584   -6.8739   -0.8991 O   0  0
    7.8380   -6.0481   -1.1477 C   0  0
    8.6083   -5.7433    0.1714 C   0  0
    9.8184   -4.8637   -0.1428 C   0  0
   10.5702   -4.5700    1.1623 C   0  0
    8.0670  -10.3271   -0.1159 C   0  0
    9.3871  -11.0935   -0.0608 C   0  0
   10.6375  -10.2072   -0.2217 C   0  0
   11.8915  -11.0751   -0.1557 C   0  0
   13.1187  -10.1757   -0.3253 C   0  0
   14.3872  -11.0348   -0.2605 C   0  0
    3.4192   -9.2297   -2.9756 C   0  0
    5.6229  -10.3005    0.1780 C   0  0
    4.4201  -10.9994    0.5218 O   0  0
    4.5638  -12.3855    0.8620 C   0  0
    3.1865  -12.9812    1.1563 C   0  0
    3.3527  -14.4634    1.5014 C   0  0
    1.9741  -15.0716    1.7879 C   0  0
    1.5175   -7.8188    1.6887 H   0  0
    1.1553   -6.2198    1.0309 H   0  0
    5.2595   -6.8510    1.2652 H   0  0
    2.1087   -7.0159   -1.2236 H   0  0
    0.8278   -8.1121   -0.6016 H   0  0
    4.3933   -5.4147    2.7272 H   0  0
    2.8442   -6.0440    3.4183 H   0  0
    2.7826   -4.7355    2.2421 H   0  0
    2.6059   -9.5067    0.4481 H   0  0
    1.4885  -11.0486   -0.8151 H   0  0
    1.8773  -11.3096   -2.5923 H   0  0
    4.4033   -7.4848   -1.1200 H   0  0
    8.8683   -8.4043   -0.7622 H   0  0
    7.0558  -11.9996    0.4773 H   0  0
    8.4969   -6.5490   -1.8712 H   0  0
    7.5090   -5.0870   -1.5661 H   0  0
    7.9438   -5.2161    0.8703 H   0  0
    8.9530   -6.6772    0.6312 H   0  0
   10.4833   -5.3914   -0.8415 H   0  0
    9.4804   -3.9213   -0.5961 H   0  0
   11.4440   -3.9381    0.9490 H   0  0
   10.9019   -5.5172    1.6123 H   0  0
    9.8996   -4.0479    1.8598 H   0  0
    9.4228  -11.6454    0.8886 H   0  0
    9.3697  -11.8500   -0.8570 H   0  0
   10.6031   -9.6957   -1.1944 H   0  0
   10.6669   -9.4603    0.5847 H   0  0
   11.9370  -11.5849    0.8167 H   0  0
   11.8670  -11.8215   -0.9617 H   0  0
   13.0669   -9.6671   -1.2987 H   0  0
   13.1380   -9.4273    0.4795 H   0  0
   15.2713  -10.3928   -0.3832 H   0  0
   14.3618  -11.7838   -1.0647 H   0  0
   14.4337  -11.5430    0.7131 H   0  0
    2.9414   -9.7113   -3.8398 H   0  0
    4.4676   -9.5596   -2.9221 H   0  0
    3.4246   -8.1341   -3.0637 H   0  0
    5.0116  -12.9266    0.0159 H   0  0
    5.2055  -12.4889    1.7484 H   0  0
    2.7260  -12.4520    2.0019 H   0  0
    2.5465  -12.8818    0.2682 H   0  0
    3.8158  -14.9863    0.6521 H   0  0
    3.9938  -14.5639    2.3884 H   0  0
    2.0876  -16.1369    2.0352 H   0  0
    1.3378  -14.9666    0.8972 H   0  0
    1.5112  -14.5444    2.6337 H   0  0
  1  4  1  0
  4  2  2  0
  2  9  1  0
  9  6  1  0
  6  3  1  0
  3  1  1  0
  4  5  1  0
  6  7  1  0
  7 25  1  0
  7  8  2  0
  9 10  1  0
 10 13  1  0
 13 11  2  0
 11 19  1  0
 19 12  2  0
 12 26  1  0
 26 10  2  0
 13 14  1  0
 14 15  1  0
 15 16  1  0
 16 17  1  0
 17 18  1  0
 19 20  1  0
 20 21  1  0
 21 22  1  0
 22 23  1  0
 23 24  1  0
 26 27  1  0
 27 28  1  0
 28 29  1  0
 29 30  1  0
 30 31  1  0
  1 32  1  0
  1 33  1  0
  2 34  1  0
  3 35  1  0
  3 36  1  0
  5 37  1  0
  5 38  1  0
  5 39  1  0
  6 40  1  0
  8 41  1  0
  8 42  1  0
  9 43  1  0
 11 44  1  0
 12 45  1  0
 15 46  1  0
 15 47  1  0
 16 48  1  0
 16 49  1  0
 17 50  1  0
 17 51  1  0
 18 52  1  0
 18 53  1  0
 18 54  1  0
 20 55  1  0
 20 56  1  0
 21 57  1  0
 21 58  1  0
 22 59  1  0
 22 60  1  0
 23 61  1  0
 23 62  1  0
 24 63  1  0
 24 64  1  0
 24 65  1  0
 25 66  1  0
 25 67  1  0
 25 68  1  0
 28 69  1  0
 28 70  1  0
 29 71  1  0
 29 72  1  0
 30 73  1  0
 30 74  1  0
 31 75  1  0
 31 76  1  0
 31 77  1  0
M  END
> <Name>
GVLM2021_2

> <Clean Energy>
83.0624

$$$$
GVLM2021_3
  SciTegic12132405553D

 77 78  0  0  0  0            999 V2000
    2.4728   -8.4873    1.3297 C   0  0
    4.8629   -7.9766    1.0020 C   0  0
    2.3877   -8.7845   -0.1805 C   0  0
    3.7691   -7.8735    1.7523 C   0  0
    3.8511   -7.1721    3.0673 C   0  0
    3.6107   -9.6167   -0.5340 C   0  0  1  0  0  0
    3.5522  -10.0914   -1.9757 C   0  0
    3.4852  -11.3979   -2.2111 C   0  0
    4.8333   -8.6323   -0.3472 C   0  0  2  0  0  0
    6.2486   -9.1854   -0.6176 C   0  0
    8.4512   -8.6601   -1.5127 C   0  0
    8.0413  -10.8473   -0.5991 C   0  0
    8.8740   -9.9922   -1.1737 C   0  0
   10.2755  -10.4020   -1.4604 C   0  0
   11.1507   -9.8393   -0.3364 C   0  0
   12.6061  -10.2198   -0.5919 C   0  0
   13.4708   -9.6528    0.5352 C   0  0
   14.9352  -10.0299    0.2823 C   0  0
    7.2010   -8.2498   -1.2476 C   0  0
    6.6978   -6.9196   -1.5453 O   0  0
    7.6115   -5.9272   -2.0888 C   0  0
    9.9720   -5.8281   -1.2451 O   0  0
   10.7346   -5.4191   -0.1141 C   0  0
   12.2133   -5.7567   -0.3544 C   0  0
    8.2561   -5.0027    0.0112 O   0  0
    8.6270   -5.5382   -1.0394 C   0  0
    3.5664   -9.1351   -3.1457 C   0  0
    6.6374  -10.4344   -0.2925 C   0  0
    5.7095  -11.3187    0.3364 O   0  0
    6.1823  -12.6347    0.6321 C   0  0
    5.2109  -14.8212    1.6301 O   0  0
    3.9894  -12.8867    1.4834 O   0  0
    5.0715  -13.4453    1.2707 C   0  0
    6.5031  -15.4053    1.3455 C   0  0
    6.4918  -16.8789    1.7814 C   0  0
    2.4088   -9.4491    1.8571 H   0  0
    1.6311   -7.8732    1.6780 H   0  0
    5.7685   -7.5463    1.3463 H   0  0
    2.3845   -7.8657   -0.7831 H   0  0
    1.4647   -9.3512   -0.3625 H   0  0
    4.8969   -7.0912    3.3965 H   0  0
    3.2221   -7.6896    3.8048 H   0  0
    3.4380   -6.1616    2.9390 H   0  0
    3.6545  -10.4841    0.1345 H   0  0
    3.4756  -12.0818   -1.3986 H   0  0
    3.4430  -11.7556   -3.2079 H   0  0
    4.6971   -7.7923   -1.0340 H   0  0
    9.1537   -8.0203   -1.9691 H   0  0
    8.4006  -11.8132   -0.3632 H   0  0
   10.3693  -11.4966   -1.4695 H   0  0
   10.6205   -9.9482   -2.3998 H   0  0
   11.0603   -8.7437   -0.3118 H   0  0
   10.8247  -10.2555    0.6267 H   0  0
   12.7025  -11.3141   -0.6166 H   0  0
   12.9324   -9.7999   -1.5536 H   0  0
   13.3700   -8.5584    0.5584 H   0  0
   13.1414  -10.0726    1.4961 H   0  0
   15.5629   -9.6253    1.0891 H   0  0
   15.2583   -9.6101   -0.6810 H   0  0
   15.0303  -11.1248    0.2558 H   0  0
    8.0966   -6.3042   -3.0008 H   0  0
    6.9956   -5.0437   -2.3064 H   0  0
   10.6221   -4.3357    0.0340 H   0  0
   10.3781   -5.9525    0.7791 H   0  0
   12.8070   -5.4453    0.5169 H   0  0
   12.5689   -5.2274   -1.2497 H   0  0
   12.3204   -6.8419   -0.5027 H   0  0
    3.0321   -9.5759   -3.9987 H   0  0
    4.6144   -8.9874   -3.4449 H   0  0
    3.1554   -8.1574   -2.8593 H   0  0
    6.5186  -13.1428   -0.2854 H   0  0
    7.0438  -12.5975    1.3167 H   0  0
    6.7099  -15.3536    0.2653 H   0  0
    7.2887  -14.8717    1.9022 H   0  0
    7.4711  -17.3313    1.5681 H   0  0
    5.7098  -17.4180    1.2272 H   0  0
    6.2860  -16.9399    2.8596 H   0  0
  1  4  1  0
  4  2  2  0
  2  9  1  0
  9  6  1  0
  6  3  1  0
  3  1  1  0
  4  5  1  0
  6  7  1  0
  7 27  1  0
  7  8  2  0
  9 10  1  0
 10 19  1  0
 19 11  2  0
 11 13  1  0
 13 12  2  0
 12 28  1  0
 28 10  2  0
 13 14  1  0
 14 15  1  0
 15 16  1  0
 16 17  1  0
 17 18  1  0
 19 20  1  0
 20 21  1  0
 21 26  1  0
 26 22  1  0
 22 23  1  0
 23 24  1  0
 26 25  2  0
 28 29  1  0
 29 30  1  0
 30 33  1  0
 33 31  1  0
 33 32  2  0
 31 34  1  0
 34 35  1  0
  1 36  1  0
  1 37  1  0
  2 38  1  0
  3 39  1  0
  3 40  1  0
  5 41  1  0
  5 42  1  0
  5 43  1  0
  6 44  1  0
  8 45  1  0
  8 46  1  0
  9 47  1  0
 11 48  1  0
 12 49  1  0
 14 50  1  0
 14 51  1  0
 15 52  1  0
 15 53  1  0
 16 54  1  0
 16 55  1  0
 17 56  1  0
 17 57  1  0
 18 58  1  0
 18 59  1  0
 18 60  1  0
 21 61  1  0
 21 62  1  0
 23 63  1  0
 23 64  1  0
 24 65  1  0
 24 66  1  0
 24 67  1  0
 27 68  1  0
 27 69  1  0
 27 70  1  0
 30 71  1  0
 30 72  1  0
 34 73  1  0
 34 74  1  0
 35 75  1  0
 35 76  1  0
 35 77  1  0
M  END
> <Name>
GVLM2021_3

> <Clean Energy>
103.558

$$$$
GVLM2021_4
  SciTegic12132405553D

 55 56  0  0  0  0            999 V2000
    1.0816   -7.0706    0.8386 C   0  0
    3.4609   -7.1756    0.2353 C   0  0
    0.7936   -8.0757   -0.2884 C   0  0
    2.4680   -6.5426    0.8497 C   0  0
    2.7638   -5.2970    1.6164 C   0  0
    1.8631   -9.1830   -0.2090 C   0  0  1  0  0  0
    1.4915  -10.3886   -1.2351 C   0  0
    0.1296  -11.0245   -0.8535 C   0  0
    3.2407   -8.4206   -0.5848 C   0  0  2  0  0  0
    4.5550   -9.2045   -0.4833 C   0  0
    6.6086  -10.0440   -1.5227 C   0  0
    6.1530  -10.5038    0.8037 C   0  0
    5.4785   -9.3573   -1.6658 C   0  0
    5.2092   -8.8091   -2.9408 O   0  0
    2.4740  -11.5846   -1.2165 C   0  0
    4.9064   -9.7586    0.6859 C   0  0
    4.0946   -9.6374    1.8094 O   0  0
    6.9575  -10.6395   -0.2434 C   0  0
    8.2290  -11.4066   -0.1051 C   0  0
    9.3758  -10.4012    0.0274 C   0  0
   10.6924  -11.1649    0.1587 C   0  0
   11.8407  -10.1627    0.2878 C   0  0
   13.1624  -10.9303    0.4185 C   0  0
    0.9561   -7.6040    1.7909 H   0  0
    0.3631   -6.2398    0.8406 H   0  0
    4.4385   -6.7703    0.2939 H   0  0
    0.8336   -7.6104   -1.2830 H   0  0
   -0.2110   -8.4667   -0.1062 H   0  0
    3.8379   -5.2278    1.8396 H   0  0
    2.1475   -5.2654    2.5260 H   0  0
    2.4725   -4.4386    0.9952 H   0  0
    1.8884   -9.5770    0.8154 H   0  0
    1.4346   -9.9803   -2.2534 H   0  0
   -0.1044  -11.8251   -1.5689 H   0  0
   -0.6710  -10.2779   -0.8816 H   0  0
    0.2003  -11.4482    0.1580 H   0  0
    3.1308   -8.0723   -1.6106 H   0  0
    7.2622  -10.1580   -2.3496 H   0  0
    6.4197  -10.9413    1.7316 H   0  0
    4.3678   -8.3244   -2.9708 H   0  0
    2.1226  -12.3463   -1.9258 H   0  0
    2.5045  -12.0131   -0.2051 H   0  0
    3.4698  -11.2693   -1.5084 H   0  0
    4.5149  -10.1074    2.5696 H   0  0
    8.2046  -12.0386    0.7935 H   0  0
    8.4177  -11.9923   -1.0153 H   0  0
    9.4117   -9.7618   -0.8656 H   0  0
    9.2196   -9.7783    0.9190 H   0  0
   10.6591  -11.8045    1.0517 H   0  0
   10.8464  -11.7876   -0.7336 H   0  0
   11.8713   -9.5239   -0.6062 H   0  0
   11.6850   -9.5398    1.1799 H   0  0
   13.9937  -10.2169    0.5114 H   0  0
   13.3111  -11.5545   -0.4743 H   0  0
   13.1253  -11.5705    1.3115 H   0  0
  1  4  1  0
  4  2  2  0
  2  9  1  0
  9  6  1  0
  6  3  1  0
  3  1  1  0
  4  5  1  0
  6  7  1  0
  7 15  1  0
  7  8  1  0
  9 10  1  0
 10 13  1  0
 13 11  2  0
 11 18  1  0
 18 12  2  0
 12 16  1  0
 16 10  2  0
 13 14  1  0
 16 17  1  0
 18 19  1  0
 19 20  1  0
 20 21  1  0
 21 22  1  0
 22 23  1  0
  1 24  1  0
  1 25  1  0
  2 26  1  0
  3 27  1  0
  3 28  1  0
  5 29  1  0
  5 30  1  0
  5 31  1  0
  6 32  1  0
  7 33  1  0
  8 34  1  0
  8 35  1  0
  8 36  1  0
  9 37  1  0
 11 38  1  0
 12 39  1  0
 14 40  1  0
 15 41  1  0
 15 42  1  0
 15 43  1  0
 17 44  1  0
 19 45  1  0
 19 46  1  0
 20 47  1  0
 20 48  1  0
 21 49  1  0
 21 50  1  0
 22 51  1  0
 22 52  1  0
 23 53  1  0
 23 54  1  0
 23 55  1  0
M  END
> <Name>
GVLM2021_4

> <Clean Energy>
60.4196

$$$$
GVLM2021_5aS
  SciTegic12132405553D

 67 68  0  0  0  0            999 V2000
    1.0698   -8.5919    1.8006 C   0  0
    3.4830   -8.3167    1.4390 C   0  0
    0.9192   -8.8938    0.3003 C   0  0
    2.4137   -8.1079    2.1976 C   0  0
    2.5773   -7.4145    3.5084 C   0  0
    2.0497   -9.8669   -0.0973 C   0  0  1  0  0  0
    1.8224  -10.4020   -1.6221 C   0  0  2  0  0  0
    0.4500  -11.1681   -1.7100 C   0  0
    0.1403  -11.6363   -3.1085 C   0  0
   -0.8099  -12.4019   -3.3037 O   0  0
    3.4003   -8.9819    0.0894 C   0  0  2  0  0  0
    4.7611   -9.6587   -0.0970 C   0  0
    6.8826   -9.6593   -1.2706 C   0  0
    6.4362  -11.3307    0.4099 C   0  0
    7.2570  -10.8146   -0.4919 C   0  0
    8.5947  -11.4353   -0.7036 C   0  0
    9.6211  -10.6106    0.0766 C   0  0
   11.0075  -11.2180   -0.1289 C   0  0
   12.0339  -10.3926    0.6489 C   0  0
   13.4265  -11.0016    0.4422 C   0  0
    5.6880   -9.0793   -1.1011 C   0  0
    5.1680   -7.9020   -1.8167 O   0  0
    7.1946   -7.2839   -3.4369 C   0  0
    5.8141   -7.0946   -2.8542 C   0  0
    5.1559   -6.1489   -3.3009 O   0  0
    2.9142  -11.4178   -2.1002 C   0  0
    5.0983  -10.7303    0.6424 C   0  0
    4.0908  -11.1916    1.6115 O   0  0
    5.2985  -13.2815    2.7100 C   0  0
    4.1586  -12.3143    2.5370 C   0  0
    3.1692  -12.4935    3.2554 O   0  0
    0.9193   -9.5371    2.3402 H   0  0
    0.3000   -7.8941    2.1571 H   0  0
    4.4254   -7.9716    1.7797 H   0  0
    0.9926   -7.9879   -0.3171 H   0  0
   -0.0683   -9.3436    0.1749 H   0  0
    3.6254   -7.4562    3.8373 H   0  0
    1.8914   -7.8501    4.2485 H   0  0
    2.2893   -6.3625    3.3740 H   0  0
    2.0335  -10.7241    0.5878 H   0  0
    1.8038   -9.5370   -2.2989 H   0  0
    0.4493  -12.0352   -1.0350 H   0  0
   -0.3760  -10.5191   -1.4052 H   0  0
    0.7313  -11.3075   -3.9267 H   0  0
    3.3327   -8.1610   -0.6299 H   0  0
    7.5640   -9.2994   -1.9562 H   0  0
    6.7564  -12.1594    0.9437 H   0  0
    8.6085  -12.4661   -0.3230 H   0  0
    8.8739  -11.3827   -1.7650 H   0  0
    9.6177   -9.5745   -0.2899 H   0  0
    9.3680  -10.6228    1.1459 H   0  0
   11.0133  -12.2540    0.2375 H   0  0
   11.2594  -11.2053   -1.1985 H   0  0
   12.0253   -9.3568    0.2811 H   0  0
   11.7798  -10.4054    1.7182 H   0  0
   14.1705  -10.4135    0.9983 H   0  0
   13.6740  -10.9898   -0.6289 H   0  0
   13.4289  -12.0383    0.8079 H   0  0
    7.4097   -6.5153   -4.1928 H   0  0
    7.2599   -8.2913   -3.8734 H   0  0
    7.9322   -7.2503   -2.6214 H   0  0
    2.7051  -11.7456   -3.1240 H   0  0
    2.9137  -12.2894   -1.4308 H   0  0
    3.8929  -10.9550   -2.0897 H   0  0
    5.0627  -14.0311    3.4788 H   0  0
    6.2043  -12.7181    2.9776 H   0  0
    5.5055  -13.7630    1.7431 H   0  0
  1  4  1  0
  4  2  2  0
  2 11  1  0
 11  6  1  0
  6  3  1  0
  3  1  1  0
  4  5  1  0
  6  7  1  0
  7 26  1  0
  7  8  1  0
  8  9  1  0
  9 10  2  0
 11 12  1  0
 12 21  1  0
 21 13  2  0
 13 15  1  0
 15 14  2  0
 14 27  1  0
 27 12  2  0
 15 16  1  0
 16 17  1  0
 17 18  1  0
 18 19  1  0
 19 20  1  0
 21 22  1  0
 22 24  1  0
 24 23  1  0
 24 25  2  0
 27 28  1  0
 28 30  1  0
 30 29  1  0
 30 31  2  0
  1 32  1  0
  1 33  1  0
  2 34  1  0
  3 35  1  0
  3 36  1  0
  5 37  1  0
  5 38  1  0
  5 39  1  0
  6 40  1  0
  7 41  1  0
  8 42  1  0
  8 43  1  0
  9 44  1  0
 11 45  1  0
 13 46  1  0
 14 47  1  0
 16 48  1  0
 16 49  1  0
 17 50  1  0
 17 51  1  0
 18 52  1  0
 18 53  1  0
 19 54  1  0
 19 55  1  0
 20 56  1  0
 20 57  1  0
 20 58  1  0
 23 59  1  0
 23 60  1  0
 23 61  1  0
 26 62  1  0
 26 63  1  0
 26 64  1  0
 29 65  1  0
 29 66  1  0
 29 67  1  0
M  END
> <Name>
GVLM2021_5aS

> <Clean Energy>
119.124

$$$$
GVLM2021_6S
  SciTegic12132405553D

 76 78  0  0  0  0            999 V2000
    2.0483   -4.3632    0.8365 C   0  0
    4.3778   -4.3770    0.0628 C   0  0
    1.7833   -5.5796   -0.0650 C   0  0
    3.3719   -3.7281    0.6369 C   0  0
    3.5951   -2.3418    1.1421 C   0  0
    2.9578   -6.5683    0.1189 C   0  0  1  0  0  0
    2.6317   -7.9839   -0.6435 C   0  0  2  0  0  0
    1.3153   -8.6209   -0.0147 C   0  0
    0.8738   -9.9533   -0.7254 C   0  0
   -0.3551  -10.5520   -0.1319 N   0  0
   -0.5976  -11.8247   -0.8419 C   0  0
   -1.8246  -12.5396   -0.2552 C   0  0
   -2.7904  -10.3304    0.3222 C   0  0
   -1.5475   -9.6560   -0.2790 C   0  0
   -3.0428  -11.6395   -0.4161 C   0  0
   -4.2731  -12.3325    0.1722 C   0  0
    4.2285   -5.7659   -0.5019 C   0  0  2  0  0  0
    5.6247   -6.3893   -0.3733 C   0  0
    7.6901   -7.1975   -1.4144 C   0  0
    7.4248   -7.2919    0.9837 C   0  0
    6.4875   -6.6542   -1.5817 C   0  0
    6.0867   -6.3593   -2.9050 O   0  0
    8.1744   -7.5304   -0.0854 C   0  0
    9.5230   -8.1440    0.0789 C   0  0
   10.5611   -7.0210    0.0446 C   0  0
   11.9529   -7.6310    0.2031 C   0  0
   12.9969   -6.5141    0.1678 C   0  0
   14.3928   -7.1302    0.3264 C   0  0
    3.7818   -9.0419   -0.4958 C   0  0
    6.1023   -6.6978    0.8409 C   0  0
    5.3509   -6.4627    1.9878 O   0  0
    2.0394   -4.7193    1.8758 H   0  0
    1.2541   -3.6091    0.7504 H   0  0
    5.3121   -3.8858   -0.0343 H   0  0
    1.7105   -5.3042   -1.1261 H   0  0
    0.8351   -6.0064    0.2682 H   0  0
    4.6679   -2.1571    1.2953 H   0  0
    3.0094   -2.1789    2.0578 H   0  0
    3.2219   -1.6403    0.3831 H   0  0
    3.0918   -6.7619    1.1911 H   0  0
    2.4624   -7.7769   -1.7088 H   0  0
    1.4960   -8.8245    1.0493 H   0  0
    0.4994   -7.9079   -0.1107 H   0  0
    0.6930   -9.7553   -1.7905 H   0  0
    1.6727  -10.6944   -0.6281 H   0  0
   -0.7665  -11.6187   -1.9080 H   0  0
    0.2827  -12.4720   -0.7294 H   0  0
   -1.9937  -13.4851   -0.7882 H   0  0
   -1.6566  -12.7432    0.8116 H   0  0
   -3.6618   -9.6711    0.2097 H   0  0
   -2.6194  -10.5363    1.3881 H   0  0
   -1.7220   -9.4585   -1.3457 H   0  0
   -1.3788   -8.7089    0.2455 H   0  0
   -3.2086  -11.4331   -1.4825 H   0  0
   -5.1492  -11.6787    0.0598 H   0  0
   -4.0999  -12.5357    1.2383 H   0  0
   -4.4482  -13.2786   -0.3591 H   0  0
    4.0162   -5.6226   -1.5603 H   0  0
    8.3019   -7.3895   -2.2585 H   0  0
    7.7905   -7.5380    1.9478 H   0  0
    5.1987   -5.9674   -2.9495 H   0  0
    9.5976   -8.6598    1.0463 H   0  0
    9.7399   -8.8142   -0.7643 H   0  0
   10.5004   -6.4905   -0.9158 H   0  0
   10.3709   -6.3166    0.8663 H   0  0
   12.0141   -8.1621    1.1632 H   0  0
   12.1405   -8.3358   -0.6190 H   0  0
   12.9338   -5.9840   -0.7930 H   0  0
   12.8079   -5.8096    0.9900 H   0  0
   15.1505   -6.3341    0.3020 H   0  0
   14.5747   -7.8369   -0.4960 H   0  0
   14.4491   -7.6627    1.2866 H   0  0
    3.5232   -9.9670   -1.0177 H   0  0
    3.9400   -9.2563    0.5702 H   0  0
    4.6985   -8.6650   -0.9276 H   0  0
    5.8631   -6.7536    2.7806 H   0  0
  1  4  1  0
  4  2  2  0
  2 17  1  0
 17  6  1  0
  6  3  1  0
  3  1  1  0
  4  5  1  0
  6  7  1  0
  7 29  1  0
  7  8  1  0
  8  9  1  0
  9 10  1  0
 10 11  1  0
 11 12  1  0
 12 15  1  0
 15 13  1  0
 13 14  1  0
 14 10  1  0
 15 16  1  0
 17 18  1  0
 18 21  1  0
 21 19  2  0
 19 23  1  0
 23 20  2  0
 20 30  1  0
 30 18  2  0
 21 22  1  0
 23 24  1  0
 24 25  1  0
 25 26  1  0
 26 27  1  0
 27 28  1  0
 30 31  1  0
  1 32  1  0
  1 33  1  0
  2 34  1  0
  3 35  1  0
  3 36  1  0
  5 37  1  0
  5 38  1  0
  5 39  1  0
  6 40  1  0
  7 41  1  0
  8 42  1  0
  8 43  1  0
  9 44  1  0
  9 45  1  0
 11 46  1  0
 11 47  1  0
 12 48  1  0
 12 49  1  0
 13 50  1  0
 13 51  1  0
 14 52  1  0
 14 53  1  0
 15 54  1  0
 16 55  1  0
 16 56  1  0
 16 57  1  0
 17 58  1  0
 19 59  1  0
 20 60  1  0
 22 61  1  0
 24 62  1  0
 24 63  1  0
 25 64  1  0
 25 65  1  0
 26 66  1  0
 26 67  1  0
 27 68  1  0
 27 69  1  0
 28 70  1  0
 28 71  1  0
 28 72  1  0
 29 73  1  0
 29 74  1  0
 29 75  1  0
 31 76  1  0
M  END
> <Name>
GVLM2021_6S

> <Clean Energy>
56.3038

$$$$
GVLM2021_6aS
  SciTegic12132405553D

 86 88  0  0  0  0            999 V2000
    2.2180   -5.4270   -1.3428 C   0  0
    4.5987   -5.8697   -1.7344 C   0  0
    1.9404   -6.9164   -1.6029 C   0  0
    3.6011   -4.9983   -1.6507 C   0  0
    3.8897   -3.5439   -1.8177 C   0  0
    3.0054   -7.7342   -0.8381 C   0  0  1  0  0  0
    2.6404   -9.3302   -0.8896 C   0  0  2  0  0  0
    1.2152   -9.5661   -0.2272 C   0  0
    0.7454  -11.0606   -0.3218 C   0  0
   -0.6109  -11.2770    0.2468 N   0  0
   -0.9580  -12.6918    0.0015 C   0  0
   -2.3738  -12.9919    0.5160 C   0  0
   -2.0665  -11.2572    2.2612 C   0  0
   -0.6537  -10.9917    1.7161 C   0  0
   -2.4210  -12.7193    2.0136 C   0  0
   -3.8284  -13.0042    2.5412 C   0  0
    4.3896   -7.3563   -1.6049 C   0  0  2  0  0  0
    5.7086   -7.8786   -1.0371 C   0  0
    7.2697   -7.9578    0.8224 C   0  0
    7.7652   -9.1345   -1.2265 C   0  0
    6.1040   -7.4961    0.3509 C   0  0
    5.1468   -6.6303    1.0643 O   0  0
    6.3581   -6.2408    3.4042 C   0  0
    5.2339   -6.0694    2.4113 C   0  0
    4.2825   -5.3693    2.7742 O   0  0
    8.1139   -8.7986    0.0061 C   0  0
    9.4058   -9.2933    0.5598 C   0  0
   10.5085   -8.3419    0.0872 C   0  0
   11.8518   -8.8245    0.6314 C   0  0
   12.9521   -7.8741    0.1554 C   0  0
   14.3022   -8.3578    0.6994 C   0  0
    3.6709  -10.2215   -0.1073 C   0  0
    6.4885   -8.6521   -1.8053 C   0  0
    5.9672   -8.9392   -3.1492 O   0  0
    7.8630  -10.5139   -4.1363 C   0  0
    6.5630   -9.7570   -4.2004 C   0  0
    5.9263   -9.8448   -5.2560 O   0  0
    2.0817   -5.2523   -0.2664 H   0  0
    1.5005   -4.7795   -1.8649 H   0  0
    5.5754   -5.5090   -1.9324 H   0  0
    1.9917   -7.1708   -2.6705 H   0  0
    0.9329   -7.1087   -1.2286 H   0  0
    4.9656   -3.3728   -1.9646 H   0  0
    3.5172   -3.0042   -0.9358 H   0  0
    3.3160   -3.1697   -2.6771 H   0  0
    3.0178   -7.4025    0.2088 H   0  0
    2.6033   -9.6448   -1.9413 H   0  0
    1.2627   -9.2469    0.8212 H   0  0
    0.4657   -8.9705   -0.7524 H   0  0
    0.7160  -11.3350   -1.3850 H   0  0
    1.4440  -11.7217    0.2015 H   0  0
   -0.9193  -12.8891   -1.0784 H   0  0
   -0.2342  -13.3376    0.5177 H   0  0
   -3.0973  -12.3439    0.0016 H   0  0
   -2.6227  -14.0449    0.3262 H   0  0
   -2.7891  -10.6111    1.7433 H   0  0
   -2.0937  -11.0499    3.3394 H   0  0
   -0.3983   -9.9438    1.9085 H   0  0
    0.0635  -11.6448    2.2324 H   0  0
   -1.6952  -13.3647    2.5274 H   0  0
   -3.8618  -12.8017    3.6208 H   0  0
   -4.0816  -14.0574    2.3554 H   0  0
   -4.5483  -12.3556    2.0226 H   0  0
    4.2816   -7.7240   -2.6271 H   0  0
    7.5955   -7.7273    1.7735 H   0  0
    8.4099   -9.7385   -1.7694 H   0  0
    6.1514   -5.6853    4.3301 H   0  0
    7.2959   -5.8991    2.9417 H   0  0
    6.4867   -7.3130    3.6120 H   0  0
    9.3853   -9.2830    1.6584 H   0  0
    9.6362  -10.2899    0.1585 H   0  0
   10.5417   -8.3321   -1.0113 H   0  0
   10.3038   -7.3277    0.4575 H   0  0
   11.8221   -8.8341    1.7298 H   0  0
   12.0556   -9.8386    0.2604 H   0  0
   12.9783   -7.8657   -0.9435 H   0  0
   12.7459   -6.8601    0.5261 H   0  0
   15.0985   -7.6794    0.3610 H   0  0
   14.5017   -9.3734    0.3286 H   0  0
   14.2699   -8.3682    1.7982 H   0  0
    3.3922  -11.2768   -0.1680 H   0  0
    3.6893   -9.9096    0.9463 H   0  0
    4.6576  -10.1178   -0.5291 H   0  0
    8.0473  -11.0558   -5.0748 H   0  0
    7.8289  -11.2071   -3.2828 H   0  0
    8.6769   -9.8041   -3.9285 H   0  0
  1  4  1  0
  4  2  2  0
  2 17  1  0
 17  6  1  0
  6  3  1  0
  3  1  1  0
  4  5  1  0
  6  7  1  0
  7 32  1  0
  7  8  1  0
  8  9  1  0
  9 10  1  0
 10 11  1  0
 11 12  1  0
 12 15  1  0
 15 13  1  0
 13 14  1  0
 14 10  1  0
 15 16  1  0
 17 18  1  0
 18 21  1  0
 21 19  2  0
 19 26  1  0
 26 20  2  0
 20 33  1  0
 33 18  2  0
 21 22  1  0
 22 24  1  0
 24 23  1  0
 24 25  2  0
 26 27  1  0
 27 28  1  0
 28 29  1  0
 29 30  1  0
 30 31  1  0
 33 34  1  0
 34 36  1  0
 36 35  1  0
 36 37  2  0
  1 38  1  0
  1 39  1  0
  2 40  1  0
  3 41  1  0
  3 42  1  0
  5 43  1  0
  5 44  1  0
  5 45  1  0
  6 46  1  0
  7 47  1  0
  8 48  1  0
  8 49  1  0
  9 50  1  0
  9 51  1  0
 11 52  1  0
 11 53  1  0
 12 54  1  0
 12 55  1  0
 13 56  1  0
 13 57  1  0
 14 58  1  0
 14 59  1  0
 15 60  1  0
 16 61  1  0
 16 62  1  0
 16 63  1  0
 17 64  1  0
 19 65  1  0
 20 66  1  0
 23 67  1  0
 23 68  1  0
 23 69  1  0
 27 70  1  0
 27 71  1  0
 28 72  1  0
 28 73  1  0
 29 74  1  0
 29 75  1  0
 30 76  1  0
 30 77  1  0
 31 78  1  0
 31 79  1  0
 31 80  1  0
 32 81  1  0
 32 82  1  0
 32 83  1  0
 35 84  1  0
 35 85  1  0
 35 86  1  0
M  END
> <Name>
GVLM2021_6aS

> <Clean Energy>
104.539

$$$$
GVLM2021_7S
  SciTegic12132405553D

 26 26  0  0  0  0            999 V2000
    3.5517   -9.7073   -0.8257 C   0  0
    4.6431  -11.8282   -0.2961 C   0  0
    5.9495   -9.7336    0.0807 C   0  0
    5.9062  -11.0726    0.0661 C   0  0
    7.1544  -11.8432    0.3416 C   0  0
    2.1859  -11.8205   -0.6971 C   0  0
    3.3402  -11.0357   -0.0772 C   0  0
    2.9923  -10.8359    1.4351 C   0  0
    4.6994   -8.9051   -0.1385 C   0  0  1  0  0  0
    5.0007   -7.7036   -0.8426 O   0  0
    2.6423   -9.0917   -0.8193 H   0  0
    3.8212   -9.9552   -1.8619 H   0  0
    4.7234  -11.9889   -1.3799 H   0  0
    4.6194  -12.8163    0.1827 H   0  0
    6.8626   -9.2461    0.3078 H   0  0
    7.9815  -11.1683    0.6035 H   0  0
    7.4032  -12.4372   -0.5488 H   0  0
    6.9564  -12.5617    1.1495 H   0  0
    1.2556  -11.2460   -0.5886 H   0  0
    2.0851  -12.7863   -0.1829 H   0  0
    2.3928  -11.9899   -1.7629 H   0  0
    2.0574  -10.2651    1.5172 H   0  0
    3.7917  -10.3011    1.9592 H   0  0
    2.8608  -11.8215    1.9017 H   0  0
    4.3677   -8.6020    0.8612 H   0  0
    5.3270   -7.9299   -1.7483 H   0  0
  1  9  1  0
  9  3  1  0
  4  2  1  0
  2  7  1  0
  7  1  1  0
  3  4  2  0
  4  5  1  0
  7  6  1  0
  7  8  1  0
  9 10  1  0
  1 11  1  0
  1 12  1  0
  2 13  1  0
  2 14  1  0
  3 15  1  0
  5 16  1  0
  5 17  1  0
  5 18  1  0
  6 19  1  0
  6 20  1  0
  6 21  1  0
  8 22  1  0
  8 23  1  0
  8 24  1  0
  9 25  1  0
 10 26  1  0
M  END
> <Name>
GVLM2021_7S

> <Clean Energy>
38.8466

$$$$
GVLM2021_8
  SciTegic12132405553D

 53 54  0  0  0  0            999 V2000
    1.0243   -9.6750    0.7863 C   0  0
    2.3940  -11.1420   -0.5584 C   0  0
    1.1183  -10.7549    0.0200 C   0  0
   -0.0106  -11.5225   -0.2315 O   0  0
    2.1963   -8.8546    1.0601 C   0  0
    2.0507   -7.7277    1.8593 O   0  0
    3.4960  -10.4277   -0.3305 C   0  0
    3.3922   -9.1717    0.5538 C   0  0
    4.7911  -10.9249   -0.9837 C   0  0
    5.1889  -12.2787   -0.3750 C   0  0
    6.4680  -12.7624   -1.0506 C   0  0
    6.8703  -14.1089   -0.4476 C   0  0
    8.1567  -14.5971   -1.1257 C   0  0
    4.5745   -8.2232    0.8920 C   0  0  2  0  0  0
    5.1048   -7.4941   -0.3766 C   0  0
    7.3814   -7.6069    0.4774 C   0  0
    6.9508   -8.5991    1.5166 C   0  0
    5.6689   -8.9164    1.6865 C   0  0
    5.3112   -9.9140    2.7532 C   0  0
    6.2554   -6.6094    0.0540 C   0  0  1  0  0  0
    7.3516   -6.3484   -2.3519 C   0  0
    6.7507   -5.7531   -1.0984 C   0  0
    6.6481   -4.4318   -1.0014 C   0  0
    0.0866   -9.4054    1.2008 H   0  0
    2.4454  -12.0076   -1.1692 H   0  0
    0.2338  -12.2835   -0.8147 H   0  0
    1.1073   -7.6467    2.1430 H   0  0
    4.6109  -11.1092   -2.0508 H   0  0
    5.6083  -10.2177   -0.8412 H   0  0
    5.3635  -12.1631    0.7008 H   0  0
    4.3903  -13.0142   -0.5406 H   0  0
    6.2931  -12.8785   -2.1291 H   0  0
    7.2703  -12.0293   -0.8850 H   0  0
    7.0434  -13.9897    0.6313 H   0  0
    6.0655  -14.8391   -0.6127 H   0  0
    8.4526  -15.5654   -0.6974 H   0  0
    8.9572  -13.8618   -0.9610 H   0  0
    7.9793  -14.7107   -2.2047 H   0  0
    4.1910   -7.4464    1.5586 H   0  0
    5.4680   -8.1929   -1.1340 H   0  0
    4.2802   -6.8993   -0.7904 H   0  0
    7.6570   -8.2055   -0.3991 H   0  0
    8.2799   -7.0735    0.8154 H   0  0
    7.6857   -9.0843    2.1058 H   0  0
    6.1648  -10.0860    3.4229 H   0  0
    5.0366  -10.8569    2.2673 H   0  0
    4.4231   -9.5654    3.2993 H   0  0
    5.9299   -5.9621    0.8803 H   0  0
    7.1530   -5.6929   -3.2110 H   0  0
    6.9852   -7.3714   -2.5183 H   0  0
    8.4410   -6.3947   -2.2133 H   0  0
    6.2278   -3.9961   -0.1305 H   0  0
    6.9862   -3.8147   -1.7948 H   0  0
  1  5  1  0
  5  8  2  0
  8  7  1  0
  7  2  2  0
  2  3  1  0
  3  1  2  0
  3  4  1  0
  5  6  1  0
  7  9  1  0
  8 14  1  0
  9 10  1  0
 10 11  1  0
 11 12  1  0
 12 13  1  0
 14 15  1  0
 15 20  1  0
 20 16  1  0
 16 17  1  0
 18 14  1  0
 17 18  2  0
 18 19  1  0
 20 22  1  0
 22 21  1  0
 22 23  2  0
  1 24  1  0
  2 25  1  0
  4 26  1  0
  6 27  1  0
  9 28  1  0
  9 29  1  0
 10 30  1  0
 10 31  1  0
 11 32  1  0
 11 33  1  0
 12 34  1  0
 12 35  1  0
 13 36  1  0
 13 37  1  0
 13 38  1  0
 14 39  1  0
 15 40  1  0
 15 41  1  0
 16 42  1  0
 16 43  1  0
 17 44  1  0
 19 45  1  0
 19 46  1  0
 19 47  1  0
 20 48  1  0
 21 49  1  0
 21 50  1  0
 21 51  1  0
 23 52  1  0
 23 53  1  0
M  END
> <Name>
GVLM2021_8

> <Clean Energy>
77.5842

$$$$
GVLM2021_5aR
  SciTegic12132405553D

 67 68  0  0  0  0            999 V2000
    1.0698   -8.5919    1.8006 C   0  0
    3.4830   -8.3167    1.4390 C   0  0
    0.9192   -8.8938    0.3003 C   0  0
    2.4137   -8.1079    2.1976 C   0  0
    2.5773   -7.4145    3.5084 C   0  0
    2.0497   -9.8669   -0.0973 C   0  0  1  0  0  0
    1.8224  -10.4020   -1.6221 C   0  0  1  0  0  0
    1.8581   -9.1233   -2.5396 C   0  0
    0.7876   -8.1258   -2.1791 C   0  0
    0.7996   -7.0004   -2.6895 O   0  0
    3.4003   -8.9819    0.0894 C   0  0  2  0  0  0
    4.7611   -9.6587   -0.0970 C   0  0
    6.8826   -9.6593   -1.2706 C   0  0
    6.4362  -11.3307    0.4099 C   0  0
    7.2570  -10.8146   -0.4919 C   0  0
    8.5947  -11.4353   -0.7036 C   0  0
    9.6211  -10.6106    0.0766 C   0  0
   11.0075  -11.2180   -0.1289 C   0  0
   12.0339  -10.3926    0.6489 C   0  0
   13.4265  -11.0016    0.4422 C   0  0
    5.6880   -9.0793   -1.1011 C   0  0
    5.1680   -7.9020   -1.8167 O   0  0
    7.1946   -7.2839   -3.4369 C   0  0
    5.8141   -7.0946   -2.8542 C   0  0
    5.1559   -6.1489   -3.3009 O   0  0
    2.9142  -11.4178   -2.1002 C   0  0
    5.0983  -10.7303    0.6424 C   0  0
    4.0908  -11.1916    1.6115 O   0  0
    5.2985  -13.2815    2.7100 C   0  0
    4.1586  -12.3143    2.5370 C   0  0
    3.1692  -12.4935    3.2554 O   0  0
    0.9193   -9.5371    2.3402 H   0  0
    0.3000   -7.8941    2.1571 H   0  0
    4.4254   -7.9716    1.7797 H   0  0
    0.9926   -7.9879   -0.3171 H   0  0
   -0.0683   -9.3436    0.1749 H   0  0
    3.6254   -7.4562    3.8373 H   0  0
    1.8914   -7.8501    4.2485 H   0  0
    2.2893   -6.3625    3.3740 H   0  0
    2.0335  -10.7241    0.5878 H   0  0
    0.8375  -10.8821   -1.7001 H   0  0
    2.8391   -8.6321   -2.4773 H   0  0
    1.6966   -9.3935   -3.5870 H   0  0
    0.0209   -8.3872   -1.4930 H   0  0
    3.3327   -8.1610   -0.6299 H   0  0
    7.5640   -9.2994   -1.9562 H   0  0
    6.7564  -12.1594    0.9437 H   0  0
    8.6085  -12.4661   -0.3230 H   0  0
    8.8739  -11.3827   -1.7650 H   0  0
    9.6177   -9.5745   -0.2899 H   0  0
    9.3680  -10.6228    1.1459 H   0  0
   11.0133  -12.2540    0.2375 H   0  0
   11.2594  -11.2053   -1.1985 H   0  0
   12.0253   -9.3568    0.2811 H   0  0
   11.7798  -10.4054    1.7182 H   0  0
   14.1705  -10.4135    0.9983 H   0  0
   13.6740  -10.9898   -0.6289 H   0  0
   13.4289  -12.0383    0.8079 H   0  0
    7.4097   -6.5153   -4.1928 H   0  0
    7.2599   -8.2913   -3.8734 H   0  0
    7.9322   -7.2503   -2.6214 H   0  0
    2.7051  -11.7456   -3.1240 H   0  0
    2.9137  -12.2894   -1.4308 H   0  0
    3.8929  -10.9550   -2.0897 H   0  0
    5.0627  -14.0311    3.4788 H   0  0
    6.2043  -12.7181    2.9776 H   0  0
    5.5055  -13.7630    1.7431 H   0  0
  1  4  1  0
  4  2  2  0
  2 11  1  0
 11  6  1  0
  6  3  1  0
  3  1  1  0
  4  5  1  0
  6  7  1  0
  7 26  1  0
  7  8  1  0
  8  9  1  0
  9 10  2  0
 11 12  1  0
 12 21  1  0
 21 13  2  0
 13 15  1  0
 15 14  2  0
 14 27  1  0
 27 12  2  0
 15 16  1  0
 16 17  1  0
 17 18  1  0
 18 19  1  0
 19 20  1  0
 21 22  1  0
 22 24  1  0
 24 23  1  0
 24 25  2  0
 27 28  1  0
 28 30  1  0
 30 29  1  0
 30 31  2  0
  1 32  1  0
  1 33  1  0
  2 34  1  0
  3 35  1  0
  3 36  1  0
  5 37  1  0
  5 38  1  0
  5 39  1  0
  6 40  1  0
  7 41  1  0
  8 42  1  0
  8 43  1  0
  9 44  1  0
 11 45  1  0
 13 46  1  0
 14 47  1  0
 16 48  1  0
 16 49  1  0
 17 50  1  0
 17 51  1  0
 18 52  1  0
 18 53  1  0
 19 54  1  0
 19 55  1  0
 20 56  1  0
 20 57  1  0
 20 58  1  0
 23 59  1  0
 23 60  1  0
 23 61  1  0
 26 62  1  0
 26 63  1  0
 26 64  1  0
 29 65  1  0
 29 66  1  0
 29 67  1  0
M  END
> <Name>
GVLM2021_5aR

> <Clean Energy>
119.124

$$$$
GVLM2021_5S
  SciTegic12132405553D

 57 58  0  0  0  0            999 V2000
    1.0869   -8.6820    1.9266 C   0  0
    3.4775   -8.3075    1.4978 C   0  0
    0.8948   -8.8961    0.4186 C   0  0
    2.4281   -8.1698    2.3007 C   0  0
    2.6151   -7.5290    3.6353 C   0  0
    2.0283   -9.8013   -0.0734 C   0  0  1  0  0  0
    1.7702  -10.3269   -1.6257 C   0  0  2  0  0  0
    0.2629  -10.8331   -1.6210 C   0  0
   -0.3312  -11.2077   -2.9536 C   0  0
   -1.3164  -11.9520   -3.0007 O   0  0
    3.3727   -8.9132    0.1206 C   0  0  2  0  0  0
    4.7317   -9.5762   -0.1264 C   0  0
    6.8729   -9.6387   -1.3127 C   0  0
    6.3820  -11.2829    0.3865 C   0  0
    7.2279  -10.8015   -0.5162 C   0  0
    8.5558  -11.4522   -0.7112 C   0  0
    9.5915  -10.6251    0.0571 C   0  0
   10.9735  -11.2493   -0.1271 C   0  0
   12.0005  -10.4135    0.6406 C   0  0
   13.3918  -11.0327    0.4569 C   0  0
    5.6981   -9.0371   -1.1495 C   0  0
    5.4256   -7.9135   -1.9646 O   0  0
    2.8367  -11.3494   -2.0743 C   0  0
    5.0856  -10.6495    0.5948 C   0  0
    4.2308  -11.1797    1.5564 O   0  0
    0.9910   -9.6633    2.4111 H   0  0
    0.3069   -8.0358    2.3517 H   0  0
    4.4188   -7.9453    1.8233 H   0  0
    0.9121   -7.9504   -0.1277 H   0  0
   -0.0762   -9.3895    0.2786 H   0  0
    3.6673   -7.5947    3.9472 H   0  0
    1.9334   -7.9824    4.3683 H   0  0
    2.3446   -6.4679    3.5418 H   0  0
    2.0323  -10.6836    0.5805 H   0  0
    1.8556   -9.4495   -2.2809 H   0  0
    0.1386  -11.6726   -0.9206 H   0  0
   -0.3506  -10.0019   -1.2475 H   0  0
    0.1076  -10.8539   -3.8508 H   0  0
    3.2872   -8.0655   -0.5550 H   0  0
    7.5583   -9.2665   -2.0306 H   0  0
    6.6534  -12.1303    0.9627 H   0  0
    8.5513  -12.4752   -0.3099 H   0  0
    8.8403  -11.4253   -1.7720 H   0  0
    9.6023   -9.5971   -0.3306 H   0  0
    9.3329  -10.6115    1.1250 H   0  0
   10.9691  -12.2773    0.2612 H   0  0
   11.2323  -11.2607   -1.1950 H   0  0
   12.0001   -9.3856    0.2509 H   0  0
   11.7389  -10.4020    1.7081 H   0  0
   14.1343  -10.4360    1.0061 H   0  0
   13.6472  -11.0442   -0.6124 H   0  0
   13.3872  -12.0615    0.8441 H   0  0
    2.5777  -11.7192   -3.0758 H   0  0
    2.8572  -12.1898   -1.3667 H   0  0
    3.8164  -10.8838   -2.1172 H   0  0
    4.5498   -7.5291   -1.7949 H   0  0
    4.6599  -11.9614    1.9812 H   0  0
  1  4  1  0
  4  2  2  0
  2 11  1  0
 11  6  1  0
  6  3  1  0
  3  1  1  0
  4  5  1  0
  6  7  1  0
  7 23  1  0
  7  8  1  0
  8  9  1  0
  9 10  2  0
 11 12  1  0
 12 21  1  0
 21 13  2  0
 13 15  1  0
 15 14  2  0
 14 24  1  0
 24 12  2  0
 15 16  1  0
 16 17  1  0
 17 18  1  0
 18 19  1  0
 19 20  1  0
 21 22  1  0
 24 25  1  0
  1 26  1  0
  1 27  1  0
  2 28  1  0
  3 29  1  0
  3 30  1  0
  5 31  1  0
  5 32  1  0
  5 33  1  0
  6 34  1  0
  7 35  1  0
  8 36  1  0
  8 37  1  0
  9 38  1  0
 11 39  1  0
 13 40  1  0
 14 41  1  0
 16 42  1  0
 16 43  1  0
 17 44  1  0
 17 45  1  0
 18 46  1  0
 18 47  1  0
 19 48  1  0
 19 49  1  0
 20 50  1  0
 20 51  1  0
 20 52  1  0
 23 53  1  0
 23 54  1  0
 23 55  1  0
 22 56  1  0
 25 57  1  0
M  END
> <Name>
GVLM2021_5S

> <Clean Energy>
74.2155

$$$$
GVLM2021_5R
  SciTegic12132405553D

 57 58  0  0  0  0            999 V2000
    1.0869   -8.6820    1.9266 C   0  0
    3.4775   -8.3075    1.4978 C   0  0
    0.8948   -8.8961    0.4186 C   0  0
    2.4281   -8.1698    2.3007 C   0  0
    2.6151   -7.5290    3.6353 C   0  0
    2.0283   -9.8013   -0.0734 C   0  0  1  0  0  0
    1.7702  -10.3269   -1.6257 C   0  0  1  0  0  0
    1.7931   -9.2149   -2.7619 C   0  0
    0.7196   -8.1597   -2.7003 C   0  0
    0.8840   -7.0805   -3.2790 O   0  0
    3.3727   -8.9132    0.1206 C   0  0  2  0  0  0
    4.7317   -9.5762   -0.1264 C   0  0
    6.8729   -9.6387   -1.3127 C   0  0
    6.3820  -11.2829    0.3865 C   0  0
    7.2279  -10.8015   -0.5162 C   0  0
    8.5558  -11.4522   -0.7112 C   0  0
    9.5915  -10.6251    0.0571 C   0  0
   10.9735  -11.2493   -0.1271 C   0  0
   12.0005  -10.4135    0.6406 C   0  0
   13.3918  -11.0327    0.4569 C   0  0
    5.6981   -9.0371   -1.1495 C   0  0
    5.4256   -7.9135   -1.9646 O   0  0
    2.8367  -11.3494   -2.0743 C   0  0
    5.0856  -10.6495    0.5948 C   0  0
    4.2308  -11.1797    1.5564 O   0  0
    0.9910   -9.6633    2.4111 H   0  0
    0.3069   -8.0358    2.3517 H   0  0
    4.4188   -7.9453    1.8233 H   0  0
    0.9121   -7.9504   -0.1277 H   0  0
   -0.0762   -9.3895    0.2786 H   0  0
    3.6673   -7.5947    3.9472 H   0  0
    1.9334   -7.9824    4.3683 H   0  0
    2.3446   -6.4679    3.5418 H   0  0
    2.0323  -10.6836    0.5805 H   0  0
    0.8011  -10.8437   -1.6441 H   0  0
    2.7781   -8.7267   -2.8060 H   0  0
    1.6420   -9.7341   -3.7182 H   0  0
   -0.1648   -8.3316   -2.1429 H   0  0
    3.2872   -8.0655   -0.5550 H   0  0
    7.5583   -9.2665   -2.0306 H   0  0
    6.6534  -12.1303    0.9627 H   0  0
    8.5513  -12.4752   -0.3099 H   0  0
    8.8403  -11.4253   -1.7720 H   0  0
    9.6023   -9.5971   -0.3306 H   0  0
    9.3329  -10.6115    1.1250 H   0  0
   10.9691  -12.2773    0.2612 H   0  0
   11.2323  -11.2607   -1.1950 H   0  0
   12.0001   -9.3856    0.2509 H   0  0
   11.7389  -10.4020    1.7081 H   0  0
   14.1343  -10.4360    1.0061 H   0  0
   13.6472  -11.0442   -0.6124 H   0  0
   13.3872  -12.0615    0.8441 H   0  0
    2.5777  -11.7192   -3.0758 H   0  0
    2.8572  -12.1898   -1.3667 H   0  0
    3.8164  -10.8838   -2.1172 H   0  0
    4.5498   -7.5291   -1.7949 H   0  0
    4.6599  -11.9614    1.9812 H   0  0
  1  4  1  0
  4  2  2  0
  2 11  1  0
 11  6  1  0
  6  3  1  0
  3  1  1  0
  4  5  1  0
  6  7  1  0
  7 23  1  0
  7  8  1  0
  8  9  1  0
  9 10  2  0
 11 12  1  0
 12 21  1  0
 21 13  2  0
 13 15  1  0
 15 14  2  0
 14 24  1  0
 24 12  2  0
 15 16  1  0
 16 17  1  0
 17 18  1  0
 18 19  1  0
 19 20  1  0
 21 22  1  0
 24 25  1  0
  1 26  1  0
  1 27  1  0
  2 28  1  0
  3 29  1  0
  3 30  1  0
  5 31  1  0
  5 32  1  0
  5 33  1  0
  6 34  1  0
  7 35  1  0
  8 36  1  0
  8 37  1  0
  9 38  1  0
 11 39  1  0
 13 40  1  0
 14 41  1  0
 16 42  1  0
 16 43  1  0
 17 44  1  0
 17 45  1  0
 18 46  1  0
 18 47  1  0
 19 48  1  0
 19 49  1  0
 20 50  1  0
 20 51  1  0
 20 52  1  0
 23 53  1  0
 23 54  1  0
 23 55  1  0
 22 56  1  0
 25 57  1  0
M  END
> <Name>
GVLM2021_5R

> <Clean Energy>
74.2155

$$$$
GVLM2021_6R
  SciTegic12132405553D

 76 78  0  0  0  0            999 V2000
    2.0483   -4.3632    0.8365 C   0  0
    4.3778   -4.3770    0.0628 C   0  0
    1.7833   -5.5796   -0.0650 C   0  0
    3.3719   -3.7281    0.6369 C   0  0
    3.5951   -2.3418    1.1421 C   0  0
    2.9578   -6.5683    0.1189 C   0  0  1  0  0  0
    2.6341   -7.9635   -0.6553 C   0  0  1  0  0  0
    2.4231   -7.6561   -2.1873 C   0  0
    1.2401   -6.6531   -2.4512 C   0  0
    1.0497   -6.3421   -3.8962 N   0  0
   -0.0303   -5.3375   -3.9796 C   0  0
   -0.2593   -4.9178   -5.4398 C   0  0
    0.4617   -7.1767   -6.1642 C   0  0
    0.6734   -7.5562   -4.6903 C   0  0
   -0.6573   -6.1456   -6.2487 C   0  0
   -0.8801   -5.7472   -7.7087 C   0  0
    4.2285   -5.7659   -0.5019 C   0  0  2  0  0  0
    5.6247   -6.3893   -0.3733 C   0  0
    7.6901   -7.1975   -1.4144 C   0  0
    7.4248   -7.2919    0.9837 C   0  0
    6.4875   -6.6542   -1.5817 C   0  0
    6.0867   -6.3593   -2.9050 O   0  0
    8.1744   -7.5304   -0.0854 C   0  0
    9.5230   -8.1440    0.0789 C   0  0
   10.5611   -7.0210    0.0446 C   0  0
   11.9529   -7.6310    0.2031 C   0  0
   12.9969   -6.5141    0.1678 C   0  0
   14.3928   -7.1302    0.3264 C   0  0
    3.7818   -9.0419   -0.4958 C   0  0
    6.1023   -6.6978    0.8409 C   0  0
    5.3509   -6.4627    1.9878 O   0  0
    2.0394   -4.7193    1.8758 H   0  0
    1.2541   -3.6091    0.7504 H   0  0
    5.3121   -3.8858   -0.0343 H   0  0
    1.7105   -5.3042   -1.1261 H   0  0
    0.8351   -6.0064    0.2682 H   0  0
    4.6679   -2.1571    1.2953 H   0  0
    3.0094   -2.1789    2.0578 H   0  0
    3.2219   -1.6403    0.3831 H   0  0
    3.0918   -6.7619    1.1911 H   0  0
    1.7069   -8.4127   -0.2347 H   0  0
    3.3527   -7.2274   -2.5851 H   0  0
    2.1984   -8.5800   -2.7156 H   0  0
    0.3079   -7.0767   -2.0539 H   0  0
    1.4505   -5.7073   -1.9430 H   0  0
   -0.9559   -5.7655   -3.5703 H   0  0
    0.2549   -4.4539   -3.3929 H   0  0
   -1.0618   -4.1693   -5.4898 H   0  0
    0.6672   -4.4924   -5.8500 H   0  0
    0.1837   -8.0690   -6.7412 H   0  0
    1.3881   -6.7482   -6.5716 H   0  0
   -0.2576   -7.9778   -4.2869 H   0  0
    1.4687   -8.3078   -4.6364 H   0  0
   -1.5818   -6.5731   -5.8364 H   0  0
   -1.1616   -6.6358   -8.2909 H   0  0
    0.0482   -5.3206   -8.1139 H   0  0
   -1.6837   -4.9996   -7.7646 H   0  0
    4.0162   -5.6226   -1.5603 H   0  0
    8.3019   -7.3895   -2.2585 H   0  0
    7.7905   -7.5380    1.9478 H   0  0
    5.1987   -5.9674   -2.9495 H   0  0
    9.5976   -8.6598    1.0463 H   0  0
    9.7399   -8.8142   -0.7643 H   0  0
   10.5004   -6.4905   -0.9158 H   0  0
   10.3709   -6.3166    0.8663 H   0  0
   12.0141   -8.1621    1.1632 H   0  0
   12.1405   -8.3358   -0.6190 H   0  0
   12.9338   -5.9840   -0.7930 H   0  0
   12.8079   -5.8096    0.9900 H   0  0
   15.1505   -6.3341    0.3020 H   0  0
   14.5747   -7.8369   -0.4960 H   0  0
   14.4491   -7.6627    1.2866 H   0  0
    3.5232   -9.9670   -1.0177 H   0  0
    3.9400   -9.2563    0.5702 H   0  0
    4.6985   -8.6650   -0.9276 H   0  0
    5.8631   -6.7536    2.7806 H   0  0
  1  4  1  0
  4  2  2  0
  2 17  1  0
 17  6  1  0
  6  3  1  0
  3  1  1  0
  4  5  1  0
  6  7  1  0
  7 29  1  0
  7  8  1  0
  8  9  1  0
  9 10  1  0
 10 11  1  0
 11 12  1  0
 12 15  1  0
 15 13  1  0
 13 14  1  0
 14 10  1  0
 15 16  1  0
 17 18  1  0
 18 21  1  0
 21 19  2  0
 19 23  1  0
 23 20  2  0
 20 30  1  0
 30 18  2  0
 21 22  1  0
 23 24  1  0
 24 25  1  0
 25 26  1  0
 26 27  1  0
 27 28  1  0
 30 31  1  0
  1 32  1  0
  1 33  1  0
  2 34  1  0
  3 35  1  0
  3 36  1  0
  5 37  1  0
  5 38  1  0
  5 39  1  0
  6 40  1  0
  7 41  1  0
  8 42  1  0
  8 43  1  0
  9 44  1  0
  9 45  1  0
 11 46  1  0
 11 47  1  0
 12 48  1  0
 12 49  1  0
 13 50  1  0
 13 51  1  0
 14 52  1  0
 14 53  1  0
 15 54  1  0
 16 55  1  0
 16 56  1  0
 16 57  1  0
 17 58  1  0
 19 59  1  0
 20 60  1  0
 22 61  1  0
 24 62  1  0
 24 63  1  0
 25 64  1  0
 25 65  1  0
 26 66  1  0
 26 67  1  0
 27 68  1  0
 27 69  1  0
 28 70  1  0
 28 71  1  0
 28 72  1  0
 29 73  1  0
 29 74  1  0
 29 75  1  0
 31 76  1  0
M  END
> <Name>
GVLM2021_6R

> <Clean Energy>
2.0749

$$$$
GVLM2021_6aR
  SciTegic12132405553D

 86 88  0  0  0  0            999 V2000
    2.2180   -5.4270   -1.3428 C   0  0
    4.5987   -5.8697   -1.7344 C   0  0
    1.9404   -6.9164   -1.6029 C   0  0
    3.6011   -4.9983   -1.6507 C   0  0
    3.8897   -3.5439   -1.8177 C   0  0
    3.0054   -7.7342   -0.8381 C   0  0  1  0  0  0
    2.6404   -9.3302   -0.8896 C   0  0  1  0  0  0
    2.6260   -9.7613   -2.4191 C   0  0
    1.5502   -8.9827   -3.2557 C   0  0
    1.4941   -9.4206   -4.6751 N   0  0
    0.3828   -8.6814   -5.3083 C   0  0
    0.2203   -9.1124   -6.7735 C   0  0
    2.6543   -9.5772   -6.8674 C   0  0
    2.7724   -9.1336   -5.4001 C   0  0
    1.5117   -8.8088   -7.5218 C   0  0
    1.3703   -9.2412   -8.9823 C   0  0
    4.3896   -7.3563   -1.6049 C   0  0  2  0  0  0
    5.7086   -7.8786   -1.0371 C   0  0
    7.2697   -7.9578    0.8224 C   0  0
    7.7652   -9.1345   -1.2265 C   0  0
    6.1040   -7.4961    0.3509 C   0  0
    5.1468   -6.6303    1.0643 O   0  0
    6.3581   -6.2408    3.4042 C   0  0
    5.2339   -6.0694    2.4113 C   0  0
    4.2825   -5.3693    2.7742 O   0  0
    8.1139   -8.7986    0.0061 C   0  0
    9.4058   -9.2933    0.5598 C   0  0
   10.5085   -8.3419    0.0872 C   0  0
   11.8518   -8.8245    0.6314 C   0  0
   12.9521   -7.8741    0.1554 C   0  0
   14.3022   -8.3578    0.6994 C   0  0
    3.6709  -10.2215   -0.1073 C   0  0
    6.4885   -8.6521   -1.8053 C   0  0
    5.9672   -8.9392   -3.1492 O   0  0
    7.8630  -10.5139   -4.1363 C   0  0
    6.5630   -9.7570   -4.2004 C   0  0
    5.9263   -9.8448   -5.2560 O   0  0
    2.0817   -5.2523   -0.2664 H   0  0
    1.5005   -4.7795   -1.8649 H   0  0
    5.5754   -5.5090   -1.9324 H   0  0
    1.9917   -7.1708   -2.6705 H   0  0
    0.9329   -7.1087   -1.2286 H   0  0
    4.9656   -3.3728   -1.9646 H   0  0
    3.5172   -3.0042   -0.9358 H   0  0
    3.3160   -3.1697   -2.6771 H   0  0
    3.0178   -7.4025    0.2088 H   0  0
    1.6425   -9.4952   -0.4613 H   0  0
    3.6269   -9.5948   -2.8359 H   0  0
    2.3740  -10.8208   -2.4973 H   0  0
    0.5692   -9.1764   -2.8011 H   0  0
    1.7487   -7.9061   -3.2385 H   0  0
   -0.5474   -8.8971   -4.7655 H   0  0
    0.5917   -7.6036   -5.2626 H   0  0
    0.0142  -10.1910   -6.8191 H   0  0
   -0.6097   -8.5593   -7.2338 H   0  0
    2.4447  -10.6552   -6.9110 H   0  0
    3.5924   -9.3627   -7.3970 H   0  0
    3.6032   -9.6783   -4.9382 H   0  0
    2.9752   -8.0543   -5.3622 H   0  0
    1.7194   -7.7309   -7.4731 H   0  0
    2.3048   -9.0263   -9.5190 H   0  0
    0.5419   -8.6890   -9.4480 H   0  0
    1.1622  -10.3197   -9.0227 H   0  0
    4.2816   -7.7240   -2.6271 H   0  0
    7.5955   -7.7273    1.7735 H   0  0
    8.4099   -9.7385   -1.7694 H   0  0
    6.1514   -5.6853    4.3301 H   0  0
    7.2959   -5.8991    2.9417 H   0  0
    6.4867   -7.3130    3.6120 H   0  0
    9.3853   -9.2830    1.6584 H   0  0
    9.6362  -10.2899    0.1585 H   0  0
   10.5417   -8.3321   -1.0113 H   0  0
   10.3038   -7.3277    0.4575 H   0  0
   11.8221   -8.8341    1.7298 H   0  0
   12.0556   -9.8386    0.2604 H   0  0
   12.9783   -7.8657   -0.9435 H   0  0
   12.7459   -6.8601    0.5261 H   0  0
   15.0985   -7.6794    0.3610 H   0  0
   14.5017   -9.3734    0.3286 H   0  0
   14.2699   -8.3682    1.7982 H   0  0
    3.3922  -11.2768   -0.1680 H   0  0
    3.6893   -9.9096    0.9463 H   0  0
    4.6576  -10.1178   -0.5291 H   0  0
    8.0473  -11.0558   -5.0748 H   0  0
    7.8289  -11.2071   -3.2828 H   0  0
    8.6769   -9.8041   -3.9285 H   0  0
  1  4  1  0
  4  2  2  0
  2 17  1  0
 17  6  1  0
  6  3  1  0
  3  1  1  0
  4  5  1  0
  6  7  1  0
  7 32  1  0
  7  8  1  0
  8  9  1  0
  9 10  1  0
 10 11  1  0
 11 12  1  0
 12 15  1  0
 15 13  1  0
 13 14  1  0
 14 10  1  0
 15 16  1  0
 17 18  1  0
 18 21  1  0
 21 19  2  0
 19 26  1  0
 26 20  2  0
 20 33  1  0
 33 18  2  0
 21 22  1  0
 22 24  1  0
 24 23  1  0
 24 25  2  0
 26 27  1  0
 27 28  1  0
 28 29  1  0
 29 30  1  0
 30 31  1  0
 33 34  1  0
 34 36  1  0
 36 35  1  0
 36 37  2  0
  1 38  1  0
  1 39  1  0
  2 40  1  0
  3 41  1  0
  3 42  1  0
  5 43  1  0
  5 44  1  0
  5 45  1  0
  6 46  1  0
  7 47  1  0
  8 48  1  0
  8 49  1  0
  9 50  1  0
  9 51  1  0
 11 52  1  0
 11 53  1  0
 12 54  1  0
 12 55  1  0
 13 56  1  0
 13 57  1  0
 14 58  1  0
 14 59  1  0
 15 60  1  0
 16 61  1  0
 16 62  1  0
 16 63  1  0
 17 64  1  0
 19 65  1  0
 20 66  1  0
 23 67  1  0
 23 68  1  0
 23 69  1  0
 27 70  1  0
 27 71  1  0
 28 72  1  0
 28 73  1  0
 29 74  1  0
 29 75  1  0
 30 76  1  0
 30 77  1  0
 31 78  1  0
 31 79  1  0
 31 80  1  0
 32 81  1  0
 32 82  1  0
 32 83  1  0
 35 84  1  0
 35 85  1  0
 35 86  1  0
M  END
> <Name>
GVLM2021_6aR

> <Clean Energy>
104.539

$$$$
GVLM2021_7R
  SciTegic12132405553D

 26 26  0  0  0  0            999 V2000
    3.5517   -9.7073   -0.8257 C   0  0
    4.6431  -11.8282   -0.2961 C   0  0
    5.9495   -9.7336    0.0807 C   0  0
    5.9062  -11.0726    0.0661 C   0  0
    7.1544  -11.8432    0.3416 C   0  0
    2.1859  -11.8205   -0.6971 C   0  0
    3.3402  -11.0357   -0.0772 C   0  0
    2.9923  -10.8359    1.4351 C   0  0
    4.6994   -8.9051   -0.1385 C   0  0  2  0  0  0
    4.2466   -8.3001    1.0695 O   0  0
    2.6423   -9.0917   -0.8193 H   0  0
    3.8212   -9.9552   -1.8619 H   0  0
    4.7234  -11.9889   -1.3799 H   0  0
    4.6194  -12.8163    0.1827 H   0  0
    6.8626   -9.2461    0.3078 H   0  0
    7.9815  -11.1683    0.6035 H   0  0
    7.4032  -12.4372   -0.5488 H   0  0
    6.9564  -12.5617    1.1495 H   0  0
    1.2556  -11.2460   -0.5886 H   0  0
    2.0851  -12.7863   -0.1829 H   0  0
    2.3928  -11.9899   -1.7629 H   0  0
    2.0574  -10.2651    1.5172 H   0  0
    3.7917  -10.3011    1.9592 H   0  0
    2.8608  -11.8215    1.9017 H   0  0
    4.9369   -8.0840   -0.8247 H   0  0
    3.9986   -9.0073    1.7148 H   0  0
  1  9  1  0
  9  3  1  0
  4  2  1  0
  2  7  1  0
  7  1  1  0
  3  4  2  0
  4  5  1  0
  7  6  1  0
  7  8  1  0
  9 10  1  0
  1 11  1  0
  1 12  1  0
  2 13  1  0
  2 14  1  0
  3 15  1  0
  5 16  1  0
  5 17  1  0
  5 18  1  0
  6 19  1  0
  6 20  1  0
  6 21  1  0
  8 22  1  0
  8 23  1  0
  8 24  1  0
  9 25  1  0
 10 26  1  0
M  END
> <Name>
GVLM2021_7R

> <Clean Energy>
38.8466

$$$$
GVLM_9R
  SciTegic12132405553D

 52 53  0  0  0  0            999 V2000
    2.4774    2.7026   -3.9552 C   0  0
    3.0563    2.4072   -2.6021 C   0  0
    2.6237    1.4051   -1.8225 C   0  0
    1.4924    0.4965   -2.2071 C   0  0  2  0  0  0
    0.6818    1.0176   -3.3966 C   0  0
    1.5918    1.5735   -4.4887 C   0  0
    0.7311    2.1132   -5.6233 C   0  0
    2.4927    0.4487   -4.9815 C   0  0
    0.5756    0.3543   -1.0321 C   0  0
    0.3702   -0.8991   -0.4556 C   0  0
   -0.4841   -1.0316    0.6391 C   0  0
   -1.1327    0.0893    1.1572 C   0  0
   -0.9272    1.3426    0.5808 C   0  0
   -0.0730    1.4751   -0.5140 C   0  0
    0.1267    2.6927   -1.0741 O   0  0
    1.0004   -1.9879   -0.9589 O   0  0
   -2.0495   -0.0529    2.3321 C   0  0
   -2.0976   -1.5121    2.7657 C   0  0
   -3.0303   -1.6568    3.9610 C   0  0
   -3.0783   -3.1160    4.3946 C   0  0
   -4.0110   -3.2607    5.5899 C   0  0
    4.1694    3.2724   -2.0987 C   0  0
    1.8648    3.6290   -3.8835 H   0  0
    3.3289    2.8193   -4.6625 H   0  0
    3.1216    1.2413   -0.8555 H   0  0
    1.9370   -0.4780   -2.5094 H   0  0
    0.0025    1.8262   -3.0453 H   0  0
    0.0997    0.1700   -3.8228 H   0  0
    0.0824    2.9325   -5.2403 H   0  0
    1.3876    2.5074   -6.4310 H   0  0
    0.0947    1.2945   -6.0277 H   0  0
    2.3138    0.2779   -6.0667 H   0  0
    3.5576    0.7299   -4.8213 H   0  0
    2.2651   -0.4831   -4.4170 H   0  0
   -0.6463   -2.0200    1.0937 H   0  0
   -1.4387    2.2266    0.9894 H   0  0
    0.7460    2.5844   -1.8154 H   0  0
    0.7346   -2.7596   -0.4310 H   0  0
   -1.6733    0.5713    3.1732 H   0  0
   -3.0717    0.2832    2.0476 H   0  0
   -2.4737   -2.1364    1.9246 H   0  0
   -1.0754   -1.8483    3.0502 H   0  0
   -2.6541   -1.0325    4.8021 H   0  0
   -4.0524   -1.3206    3.6765 H   0  0
   -3.4545   -3.7402    3.5535 H   0  0
   -2.0561   -3.4522    4.6791 H   0  0
   -4.0461   -4.3270    5.9068 H   0  0
   -3.6348   -2.6364    6.4310 H   0  0
   -5.0332   -2.9245    5.3054 H   0  0
    4.4834    2.9240   -1.0893 H   0  0
    5.0332    3.2088   -2.7977 H   0  0
    3.8196    4.3270   -2.0348 H   0  0
  1  2  1  0
  1  6  1  0
  1 23  1  0
  1 24  1  0
  2  3  2  0
  2 22  1  0
  3  4  1  0
  3 25  1  0
  4  5  1  0
  4  9  1  0
  4 26  1  0
  5  6  1  0
  5 27  1  0
  5 28  1  0
  6  7  1  0
  6  8  1  0
  7 29  1  0
  7 30  1  0
  7 31  1  0
  8 32  1  0
  8 33  1  0
  8 34  1  0
  9 10  1  0
  9 14  2  0
 10 11  2  0
 10 16  1  0
 11 12  1  0
 11 35  1  0
 12 13  2  0
 12 17  1  0
 13 14  1  0
 13 36  1  0
 14 15  1  0
 15 37  1  0
 16 38  1  0
 17 18  1  0
 17 39  1  0
 17 40  1  0
 18 19  1  0
 18 41  1  0
 18 42  1  0
 19 20  1  0
 19 43  1  0
 19 44  1  0
 20 21  1  0
 20 45  1  0
 20 46  1  0
 21 47  1  0
 21 48  1  0
 21 49  1  0
 22 50  1  0
 22 51  1  0
 22 52  1  0
M  END
> <Name>
GVLM_9R

$$$$
GVLM_9S
  SciTegic12132405553D

 52 53  0  0  0  0            999 V2000
    0.1540    5.7060   -0.3119 C   0  0
    0.7329    5.4107    1.0412 C   0  0
    0.3003    4.4086    1.8207 C   0  0
   -0.8311    3.4999    1.4362 C   0  0  1  0  0  0
   -1.6416    4.0210    0.2466 C   0  0
   -0.7316    4.5769   -0.8454 C   0  0
   -1.5923    5.1166   -1.9801 C   0  0
    0.1693    3.4522   -1.3383 C   0  0
   -0.2654    2.1613    1.0769 C   0  0
   -1.0518    1.0159    1.2006 C   0  0
   -0.5247   -0.2314    0.8659 C   0  0
    0.7888   -0.3332    0.4076 C   0  0
    1.5751    0.8121    0.2838 C   0  0
    1.0480    2.0594    0.6186 C   0  0
    1.8119    3.1721    0.4985 O   0  0
   -2.3277    1.1150    1.6457 O   0  0
    1.3544   -1.6719    0.0484 C   0  0
    0.2988   -2.7466    0.2723 C   0  0
    0.8743   -4.1085   -0.0931 C   0  0
   -0.1814   -5.1832    0.1308 C   0  0
    0.3941   -6.5451   -0.2346 C   0  0
    1.8460    6.2758    1.5446 C   0  0
   -0.4586    6.6325   -0.2402 H   0  0
    1.0054    5.8227   -1.0192 H   0  0
    0.7982    4.2447    2.7878 H   0  0
   -1.5207    3.4410    2.3078 H   0  0
   -2.2439    3.1853   -0.1749 H   0  0
   -2.3019    4.8423    0.6048 H   0  0
   -2.2410    5.9359   -1.5970 H   0  0
   -0.9358    5.5108   -2.7878 H   0  0
   -2.2287    4.2980   -2.3844 H   0  0
   -0.0096    3.2814   -2.4235 H   0  0
    1.2342    3.7333   -1.1781 H   0  0
   -0.0583    2.5204   -0.7738 H   0  0
   -1.1448   -1.1347    0.9635 H   0  0
    2.6109    0.7317   -0.0777 H   0  0
    1.2770    3.9350    0.7753 H   0  0
   -2.7098    0.2214    1.6637 H   0  0
    1.6599   -1.6700   -1.0219 H   0  0
    2.2406   -1.8836    0.6877 H   0  0
   -0.0067   -2.7485    1.3426 H   0  0
   -0.5874   -2.5348   -0.3669 H   0  0
    1.1797   -4.1066   -1.1633 H   0  0
    1.7604   -4.3203    0.5462 H   0  0
   -0.4869   -5.1851    1.2011 H   0  0
   -1.0675   -4.9715   -0.5084 H   0  0
   -0.3774   -7.3305   -0.0709 H   0  0
    0.6996   -6.5432   -1.3048 H   0  0
    1.2803   -6.7569    0.4047 H   0  0
    2.1600    5.9275    2.5540 H   0  0
    2.7098    6.2123    0.8455 H   0  0
    1.4962    7.3305    1.6085 H   0  0
  1  2  1  0
  1  6  1  0
  1 23  1  0
  1 24  1  0
  2  3  2  0
  2 22  1  0
  3  4  1  0
  3 25  1  0
  4  5  1  0
  4  9  1  0
  4 26  1  0
  5  6  1  0
  5 27  1  0
  5 28  1  0
  6  7  1  0
  6  8  1  0
  7 29  1  0
  7 30  1  0
  7 31  1  0
  8 32  1  0
  8 33  1  0
  8 34  1  0
  9 10  1  0
  9 14  2  0
 10 11  2  0
 10 16  1  0
 11 12  1  0
 11 35  1  0
 12 13  2  0
 12 17  1  0
 13 14  1  0
 13 36  1  0
 14 15  1  0
 15 37  1  0
 16 38  1  0
 17 18  1  0
 17 39  1  0
 17 40  1  0
 18 19  1  0
 18 41  1  0
 18 42  1  0
 19 20  1  0
 19 43  1  0
 19 44  1  0
 20 21  1  0
 20 45  1  0
 20 46  1  0
 21 47  1  0
 21 48  1  0
 21 49  1  0
 22 50  1  0
 22 51  1  0
 22 52  1  0
M  END
> <Name>
GVLM_9S

$$$$
GVLM_10
  SciTegic12132405553D

 23 23  0  0  0  0            999 V2000
   15.1217   -4.9792   -0.0629 C   0  0
   16.2677   -5.6524   -0.0957 C   0  0
   15.1235   -7.7853   -0.0456 C   0  0
   13.8200   -5.7146   -0.0164 C   0  0
   12.5455   -5.0676    0.0206 O   0  0
   12.5804   -3.6324    0.0106 C   0  0
   13.8205   -7.0463   -0.0082 C   0  0
   12.5459   -7.6925    0.0369 O   0  0
   12.5802   -9.1276    0.0446 C   0  0
   16.2743   -7.1182   -0.0868 C   0  0
   18.8062   -7.2773   -0.1674 O   0  0
   17.5410   -7.8934   -0.1228 C   0  0
   17.4831   -9.1280   -0.1133 O   0  0
   15.1572   -3.9218   -0.0706 H   0  0
   17.1817   -5.1210   -0.1284 H   0  0
   15.1543   -8.8423   -0.0401 H   0  0
   11.5526   -3.2438    0.0413 H   0  0
   13.0753   -3.2811   -0.9070 H   0  0
   13.1332   -3.2700    0.8901 H   0  0
   11.5523   -9.5155    0.0802 H   0  0
   13.1330   -9.4793    0.9285 H   0  0
   13.0751   -9.4904   -0.8685 H   0  0
   18.7332   -6.3014   -0.1711 H   0  0
  4  1  1  0
  1  2  2  0
  2 10  1  0
 10  3  2  0
  3  7  1  0
  7  4  2  0
  4  5  1  0
  5  6  1  0
  7  8  1  0
  8  9  1  0
 10 12  1  0
 12 11  1  0
 12 13  2  0
  1 14  1  0
  2 15  1  0
  3 16  1  0
  6 17  1  0
  6 18  1  0
  6 19  1  0
  9 20  1  0
  9 21  1  0
  9 22  1  0
 11 23  1  0
M  END
> <Name>
GVLM_10

> <Clean Energy>
1.83791

$$$$
GVLM_11
  SciTegic12132405553D

 34 35  0  0  0  0            999 V2000
    9.5701   -5.9667    0.0594 C   0  0
   11.9890   -5.9505    0.0881 C   0  0
   10.7991   -7.9927   -0.4414 C   0  0
   10.8480   -5.2831    0.2411 C   0  0
   10.8712   -3.9351    0.5733 O   0  0
    9.5469   -7.2572   -0.2636 C   0  0
    8.3322   -7.9088   -0.4313 O   0  0
   11.9680   -7.3758   -0.2725 C   0  0
   14.4143   -7.5841   -0.2218 N   0  0
   13.2171   -8.1402   -0.4577 C   0  0
   13.1446   -9.3145   -0.8376 O   0  0
   15.6320   -8.3291   -0.4102 C   0  0
   16.8271   -7.3749   -0.2501 C   0  0
   18.1399   -8.1496   -0.4560 C   0  0
   18.2434   -9.2777    0.5853 C   0  0
   17.0515  -10.2370    0.4233 C   0  0
   15.7407   -9.4614    0.6407 C   0  0
    8.6616   -5.4348    0.1870 H   0  0
   12.9125   -5.4500    0.2203 H   0  0
   10.7756   -9.0200   -0.7016 H   0  0
    9.9436   -3.5988    0.6443 H   0  0
    8.4977   -8.8559   -0.6642 H   0  0
   14.4769   -6.6472    0.0836 H   0  0
   15.6301   -8.7880   -1.4085 H   0  0
   16.7558   -6.5715   -0.9954 H   0  0
   16.8117   -6.9412    0.7601 H   0  0
   18.1529   -8.5827   -1.4655 H   0  0
   18.9911   -7.4644   -0.3386 H   0  0
   19.1814   -9.8297    0.4344 H   0  0
   18.2289   -8.8462    1.5962 H   0  0
   17.0605  -10.6661   -0.5893 H   0  0
   17.1273  -11.0434    1.1652 H   0  0
   14.8910  -10.1488    0.5329 H   0  0
   15.7359   -9.0270    1.6493 H   0  0
  1  4  1  0
  4  2  2  0
  2  8  1  0
  8  3  2  0
  3  6  1  0
  6  1  2  0
  4  5  1  0
  6  7  1  0
  8 10  1  0
 10  9  1  0
 10 11  2  0
  9 12  1  0
 12 13  1  0
 13 14  1  0
 14 15  1  0
 15 16  1  0
 16 17  1  0
 17 12  1  0
  1 18  1  0
  2 19  1  0
  3 20  1  0
  5 21  1  0
  7 22  1  0
  9 23  1  0
 12 24  1  0
 13 25  1  0
 13 26  1  0
 14 27  1  0
 14 28  1  0
 15 29  1  0
 15 30  1  0
 16 31  1  0
 16 32  1  0
 17 33  1  0
 17 34  1  0
M  END
> <Name>
GVLM_11

> <Clean Energy>
0.806809

$$$$
GVLM_12
  SciTegic12132405553D

 27 27  0  0  0  0            999 V2000
   11.0406   -6.1857   -0.1630 C   0  0
   13.4571   -6.0828   -0.0970 C   0  0
   12.3371   -8.2301   -0.1194 C   0  0
   12.2942   -5.4363   -0.1314 C   0  0
   12.2714   -4.0481   -0.1373 O   0  0
   11.0612   -7.5162   -0.1573 C   0  0
    9.8703   -8.2293   -0.1874 O   0  0
   13.4832   -7.5524   -0.0906 C   0  0
   15.9329   -7.6699   -0.0247 N   0  0
   14.7562   -8.2959   -0.0529 C   0  0
   14.7325   -9.5316   -0.0476 O   0  0
   17.1351   -8.4378    0.0105 C   0  0
   18.3481   -7.5021    0.0042 C   0  0
   19.6313   -8.3432    0.0431 C   0  0
   10.1147   -5.6693   -0.1905 H   0  0
   14.3631   -5.5354   -0.0743 H   0  0
   12.3488   -9.2902   -0.1150 H   0  0
   11.3330   -3.7358   -0.1643 H   0  0
   10.0684   -9.1986   -0.1782 H   0  0
   15.9859   -6.6822   -0.0286 H   0  0
   17.1401   -9.0586    0.9173 H   0  0
   17.1639   -9.1043   -0.8628 H   0  0
   18.3349   -6.8910   -0.9094 H   0  0
   18.3099   -6.8463    0.8856 H   0  0
   20.5065   -7.6778    0.0386 H   0  0
   19.6638   -8.9997   -0.8383 H   0  0
   19.6388   -8.9549    0.9566 H   0  0
  1  4  1  0
  4  2  2  0
  2  8  1  0
  8  3  2  0
  3  6  1  0
  6  1  2  0
  4  5  1  0
  6  7  1  0
  8 10  1  0
 10  9  1  0
 10 11  2  0
  9 12  1  0
 12 13  1  0
 13 14  1  0
  1 15  1  0
  2 16  1  0
  3 17  1  0
  5 18  1  0
  7 19  1  0
  9 20  1  0
 12 21  1  0
 12 22  1  0
 13 23  1  0
 13 24  1  0
 14 25  1  0
 14 26  1  0
 14 27  1  0
M  END
> <Name>
GVLM_12

> <Clean Energy>
1.20029

$$$$
GVLM_13
  SciTegic12132405553D

 37 38  0  0  0  0            999 V2000
    5.8985   -6.6645   -0.1651 C   0  0
    8.3154   -6.5642   -0.1002 C   0  0
    7.1926   -8.7100   -0.1178 C   0  0
    7.1531   -5.9165   -0.1355 C   0  0
    7.1315   -4.5283   -0.1440 O   0  0
    5.9176   -7.9951   -0.1568 C   0  0
    4.7260   -8.7071   -0.1850 O   0  0
    8.3395   -8.0337   -0.0908 C   0  0
   10.7895   -8.1572   -0.0252 N   0  0
    9.6107   -8.7795   -0.0513 C   0  0
    9.5838  -10.0151   -0.0419 O   0  0
   11.9877   -8.9310    0.0134 C   0  0
   13.2067   -8.0065   -0.0083 C   0  0
   14.4820   -8.8647    0.0372 C   0  0
   15.7783   -8.0656    0.0226 C   0  0
   15.8129   -6.5780    0.0337 C   0  0
   16.9836   -5.9440    0.0198 C   0  0
   18.2320   -6.7032   -0.0058 C   0  0
   18.2038   -8.0335   -0.0153 C   0  0
   16.9247   -8.7418   -0.0005 C   0  0
    4.9732   -6.1473   -0.1933 H   0  0
    9.2222   -6.0180   -0.0788 H   0  0
    7.2030   -9.7702   -0.1110 H   0  0
    6.1933   -4.2152   -0.1711 H   0  0
    4.9232   -9.6766   -0.1740 H   0  0
   10.8464   -7.1695   -0.0323 H   0  0
   11.9928   -9.5410    0.9273 H   0  0
   12.0087   -9.6081   -0.8518 H   0  0
   13.1962   -7.4063   -0.9292 H   0  0
   13.1769   -7.3404    0.8658 H   0  0
   14.4814   -9.4880    0.9419 H   0  0
   14.5038   -9.5607   -0.8126 H   0  0
   14.9222   -6.0093    0.0530 H   0  0
   17.0102   -4.8840    0.0277 H   0  0
   19.1618   -6.1933   -0.0167 H   0  0
   19.1115   -8.5815   -0.0337 H   0  0
   16.9089   -9.8020   -0.0082 H   0  0
  1  4  1  0
  4  2  2  0
  2  8  1  0
  8  3  2  0
  3  6  1  0
  6  1  2  0
  4  5  1  0
  6  7  1  0
  8 10  1  0
 10  9  1  0
 10 11  2  0
  9 12  1  0
 12 13  1  0
 13 14  1  0
 14 15  1  0
 15 16  1  0
 16 17  2  0
 17 18  1  0
 18 19  2  0
 19 20  1  0
 20 15  2  0
  1 21  1  0
  2 22  1  0
  3 23  1  0
  5 24  1  0
  7 25  1  0
  9 26  1  0
 12 27  1  0
 12 28  1  0
 13 29  1  0
 13 30  1  0
 14 31  1  0
 14 32  1  0
 16 33  1  0
 17 34  1  0
 18 35  1  0
 19 36  1  0
 20 37  1  0
M  END
> <Name>
GVLM_13

> <Clean Energy>
12.527

$$$$
GVLM_14
  SciTegic12132405553D

 40 41  0  0  0  0            999 V2000
   12.1955   -5.3807   -0.2964 C   0  0
   13.3285   -6.0601   -0.1495 C   0  0
   12.1437   -8.1207    0.3046 C   0  0
   10.8786   -6.0756   -0.1449 C   0  0
    9.6161   -5.4202   -0.2886 O   0  0
    9.6785   -4.0178   -0.5890 C   0  0
   10.8541   -7.3769    0.1379 C   0  0
    9.5672   -7.9868    0.2643 O   0  0
    9.5758   -9.3916    0.5600 C   0  0
   13.3057   -7.4878    0.1654 C   0  0
   15.7549   -7.6836    0.1644 N   0  0
   14.5561   -8.2524    0.3371 C   0  0
   14.4874   -9.4475    0.6467 O   0  0
   16.9514   -8.4522    0.3407 C   0  0
   18.1520   -7.5017    0.4754 C   0  0
   19.4404   -8.3223    0.6606 C   0  0
   19.6475   -9.2375   -0.5592 C   0  0
   18.4473  -10.1902   -0.6958 C   0  0
   17.1624   -9.3666   -0.8861 C   0  0
   12.2511   -4.3484   -0.5219 H   0  0
   14.2546   -5.5595   -0.2590 H   0  0
   12.1566   -9.1533    0.5325 H   0  0
    8.6578   -3.6193   -0.6769 H   0  0
   10.2118   -3.8662   -1.5390 H   0  0
   10.2068   -3.4902    0.2192 H   0  0
    8.5405   -9.7538    0.6330 H   0  0
   10.0910   -9.5654    1.5160 H   0  0
   10.0956   -9.9347   -0.2436 H   0  0
   15.8303   -6.7307   -0.0847 H   0  0
   16.8536   -9.0887    1.2310 H   0  0
   18.2347   -6.8891   -0.4335 H   0  0
   18.0050   -6.8488    1.3462 H   0  0
   20.2976   -7.6415    0.7568 H   0  0
   19.3546   -8.9364    1.5678 H   0  0
   19.7311   -8.6238   -1.4672 H   0  0
   20.5673   -9.8235   -0.4252 H   0  0
   18.5958  -10.8438   -1.5661 H   0  0
   18.3589  -10.8021    0.2134 H   0  0
   17.2528   -8.7502   -1.7908 H   0  0
   16.3059  -10.0471   -0.9891 H   0  0
  4  1  1  0
  1  2  2  0
  2 10  1  0
 10  3  2  0
  3  7  1  0
  7  4  2  0
  4  5  1  0
  5  6  1  0
  7  8  1  0
  8  9  1  0
 10 12  1  0
 12 11  1  0
 12 13  2  0
 11 14  1  0
 14 15  1  0
 15 16  1  0
 16 17  1  0
 17 18  1  0
 18 19  1  0
 19 14  1  0
  1 20  1  0
  2 21  1  0
  3 22  1  0
  6 23  1  0
  6 24  1  0
  6 25  1  0
  9 26  1  0
  9 27  1  0
  9 28  1  0
 11 29  1  0
 14 30  1  0
 15 31  1  0
 15 32  1  0
 16 33  1  0
 16 34  1  0
 17 35  1  0
 17 36  1  0
 18 37  1  0
 18 38  1  0
 19 39  1  0
 19 40  1  0
M  END
> <Name>
GVLM_14

> <Clean Energy>
3.75353

$$$$
GVLM_15
  SciTegic12132405553D

 33 33  0  0  0  0            999 V2000
   12.3278   -5.4861    0.0000 C   0  0
   13.4847   -6.1408    0.0000 C   0  0
   12.3752   -8.2913    0.0001 C   0  0
   11.0369   -6.2432    0.0001 C   0  0
    9.7516   -5.6171    0.0001 O   0  0
   11.0592   -7.5750    0.0001 C   0  0
    9.7951   -8.2428    0.0002 O   0  0
    9.7638   -4.1816    0.0000 C   0  0
    9.8539   -9.6771    0.0002 C   0  0
   13.5134   -7.6025    0.0000 C   0  0
   15.9666   -7.7086   -0.0001 N   0  0
   14.7918   -8.3398    0.0000 C   0  0
   14.7748   -9.5756    0.0000 O   0  0
   17.1724   -8.4715   -0.0001 C   0  0
   18.3809   -7.5299   -0.0002 C   0  0
   19.6685   -8.3652   -0.0002 C   0  0
   12.3463   -4.4282   -0.0001 H   0  0
   14.3921   -5.5961   -0.0001 H   0  0
   12.4253   -9.3478    0.0001 H   0  0
    8.7294   -3.8094    0.0001 H   0  0
   10.2821   -3.8163   -0.8990 H   0  0
   10.2822   -3.8163    0.8990 H   0  0
    8.8322  -10.0826    0.0003 H   0  0
   10.3840  -10.0252    0.8992 H   0  0
   10.3839  -10.0253   -0.8988 H   0  0
   16.0158   -6.7211   -0.0001 H   0  0
   17.1924   -9.1152    0.8904 H   0  0
   17.1923   -9.1153   -0.8905 H   0  0
   18.3520   -6.8964   -0.8981 H   0  0
   18.3521   -6.8964    0.8977 H   0  0
   20.5404   -7.6954   -0.0002 H   0  0
   19.6917   -8.9994   -0.8979 H   0  0
   19.6918   -8.9993    0.8976 H   0  0
  4  1  1  0
  1  2  2  0
  2 10  1  0
 10  3  2  0
  3  6  1  0
  6  4  2  0
  4  5  1  0
  6  7  1  0
  5  8  1  0
  7  9  1  0
 10 12  1  0
 12 11  1  0
 12 13  2  0
 11 14  1  0
 14 15  1  0
 15 16  1  0
  1 17  1  0
  2 18  1  0
  3 19  1  0
  8 20  1  0
  8 21  1  0
  8 22  1  0
  9 23  1  0
  9 24  1  0
  9 25  1  0
 11 26  1  0
 14 27  1  0
 14 28  1  0
 15 29  1  0
 15 30  1  0
 16 31  1  0
 16 32  1  0
 16 33  1  0
M  END
> <Name>
GVLM_15

> <Clean Energy>
4.71999

$$$$
GVLM_16
  SciTegic12132405553D

 43 44  0  0  0  0            999 V2000
    9.2448   -5.5686    0.0001 C   0  0
   10.4014   -6.2245    0.0001 C   0  0
    9.2894   -8.3738    0.0008 C   0  0
    7.9531   -6.3249    0.0004 C   0  0
    6.6682   -5.6980    0.0003 O   0  0
    7.9743   -7.6567    0.0007 C   0  0
    6.7097   -8.3235    0.0010 O   0  0
    6.6810   -4.2625    0.0000 C   0  0
    6.7677   -9.7580    0.0013 C   0  0
   10.4282   -7.6862    0.0005 C   0  0
   12.8816   -7.7985    0.0003 N   0  0
   11.7049   -8.4258    0.0006 C   0  0
   11.6847   -9.6616    0.0009 O   0  0
   14.0836   -8.5673    0.0005 C   0  0
   15.2973   -7.6357    0.0001 C   0  0
   16.5781   -8.4867    0.0003 C   0  0
   17.8693   -7.6791    0.0000 C   0  0
   17.8940   -6.1910    0.0004 C   0  0
   19.0606   -5.5493    0.0001 C   0  0
   20.3141   -6.3003   -0.0007 C   0  0
   20.2949   -7.6307   -0.0010 C   0  0
   19.0204   -8.3477   -0.0007 C   0  0
    9.2642   -4.5108   -0.0002 H   0  0
   11.3095   -5.6808   -0.0001 H   0  0
    9.3386   -9.4302    0.0010 H   0  0
    5.6468   -3.8900    0.0000 H   0  0
    7.1994   -3.8977   -0.8992 H   0  0
    7.1995   -3.8973    0.8989 H   0  0
    5.7458  -10.1630    0.0015 H   0  0
    7.2976  -10.1062    0.9004 H   0  0
    7.2975  -10.1067   -0.8976 H   0  0
   12.9347   -6.8109    0.0001 H   0  0
   14.1001   -9.2109    0.8909 H   0  0
   14.0999   -9.2115   -0.8896 H   0  0
   15.2733   -7.0025   -0.8982 H   0  0
   15.2734   -7.0020    0.8980 H   0  0
   16.5932   -9.1467    0.8785 H   0  0
   16.5932   -9.1474   -0.8775 H   0  0
   16.9995   -5.6280    0.0009 H   0  0
   19.0800   -4.4891    0.0004 H   0  0
   21.2406   -5.7842   -0.0009 H   0  0
   21.2064   -8.1728   -0.0016 H   0  0
   19.0118   -9.4079   -0.0010 H   0  0
  4  1  1  0
  1  2  2  0
  2 10  1  0
 10  3  2  0
  3  6  1  0
  6  4  2  0
  4  5  1  0
  6  7  1  0
  5  8  1  0
  7  9  1  0
 10 12  1  0
 12 11  1  0
 12 13  2  0
 11 14  1  0
 14 15  1  0
 15 16  1  0
 16 17  1  0
 17 18  1  0
 18 19  2  0
 19 20  1  0
 20 21  2  0
 21 22  1  0
 22 17  2  0
  1 23  1  0
  2 24  1  0
  3 25  1  0
  8 26  1  0
  8 27  1  0
  8 28  1  0
  9 29  1  0
  9 30  1  0
  9 31  1  0
 11 32  1  0
 14 33  1  0
 14 34  1  0
 15 35  1  0
 15 36  1  0
 16 37  1  0
 16 38  1  0
 18 39  1  0
 19 40  1  0
 20 41  1  0
 21 42  1  0
 22 43  1  0
M  END
> <Name>
GVLM_16

> <Clean Energy>
16.0506

$$$$
MFR2013_RS10
  SciTegic12132405553D

 41 43  0  0  0  0            999 V2000
  -14.1140    3.0619   -0.0660 C   0  0
  -12.6720    3.3009   -0.1096 C   0  0
  -11.8019    2.2908   -0.0662 C   0  0
  -12.3524    0.9005    0.0419 C   0  0
  -13.6674    0.6990    0.0821 C   0  0
  -14.5856    1.8237    0.0237 C   0  0
  -10.3255    2.7081   -0.1184 C   0  0
   -9.2000    1.9554   -0.1733 C   0  0
   -7.9279    2.7034   -0.1806 C   0  0
   -6.6221    2.0151   -0.1638 C   0  0
   -6.6240    0.5000   -0.2092 C   0  0
   -7.8647   -0.0230   -0.9300 C   0  0
   -9.1335    0.4467   -0.2211 C   0  0
   -5.5339    2.8242   -0.1036 C   0  0
   -4.0322    2.4917   -0.0427 C   0  0
   -3.1420    3.6626   -0.0868 C   0  0
   -1.8198    3.5244   -0.0370 C   0  0
   -1.2293    2.2044    0.0646 C   0  0
   -2.0117    1.1326    0.1102 C   0  0
   -3.4685    1.2755    0.0573 C   0  0
   -7.9572    3.9387   -0.1539 O   0  0
  -14.7862    3.8810   -0.1067 H   0  0
  -12.3106    4.2952   -0.1804 H   0  0
  -15.9560    1.6026    0.0644 O   0  0
  -10.1650    3.7544   -0.1073 H   0  0
   -5.7239    0.1396   -0.7014 H   0  0
   -6.6310    0.1207    0.8216 H   0  0
   -7.8676    0.3532   -1.9631 H   0  0
   -7.8416   -1.1214   -0.9417 H   0  0
  -10.0111    0.0506   -0.7236 H   0  0
   -9.1222    0.0660    0.8092 H   0  0
   -5.7496    3.8605   -0.0956 H   0  0
   -3.5627    4.6331   -0.1606 H   0  0
   -1.1963    4.3815   -0.0711 H   0  0
   -4.0462    0.4170    0.1053 H   0  0
  -14.0474   -0.2878    0.1606 H   0  0
   -1.5793    0.1674    0.1863 H   0  0
    0.1512    2.0626    0.1155 O   0  0
    0.5744    2.9559    0.0711 H   0  0
  -11.7211    0.0733    0.0941 H   0  0
  -16.1295    0.6309    0.1320 H   0  0
  1  2  1  0
  2  3  2  0
  3  4  1  0
  4  5  2  0
  5  6  1  0
  6  1  2  0
  3  7  1  0
  7  8  2  0
  8  9  1  0
  9 10  1  0
 10 11  1  0
 11 12  1  0
 12 13  1  0
 13  8  1  0
 10 14  2  0
 14 15  1  0
 15 16  1  0
 16 17  2  0
 17 18  1  0
 18 19  2  0
 19 20  1  0
 20 15  2  0
  9 21  2  0
  1 22  1  0
  2 23  1  0
  6 24  1  0
  7 25  1  0
 11 26  1  0
 11 27  1  0
 12 28  1  0
 12 29  1  0
 13 30  1  0
 13 31  1  0
 14 32  1  0
 16 33  1  0
 17 34  1  0
 20 35  1  0
  5 36  1  0
 19 37  1  0
 18 38  1  0
 38 39  1  0
  4 40  1  0
 24 41  1  0
M  END
> <Name>
MFR2013_RS10

> <Clean Energy>
37.9893

$$$$
MFR2013_RS12
  SciTegic12132405553D

 41 43  0  0  0  0            999 V2000
  -14.2189    2.8533   -0.1262 C   0  0
  -12.7921    3.2150   -0.0941 C   0  0
  -11.8448    2.2795    0.0122 C   0  0
  -12.3056    0.8469    0.1175 C   0  0
  -13.5976    0.5404    0.0838 C   0  0
  -14.5951    1.5811   -0.0460 C   0  0
  -10.3728    2.8034    0.0157 C   0  0
   -9.2038    2.1082   -0.0083 C   0  0
   -7.9289    2.8901    0.0095 C   0  0
   -6.6021    2.1984   -0.0043 C   0  0
   -6.6151    0.6900   -0.0573 C   0  0
   -7.8366    0.1669   -0.7695 C   0  0
   -9.0939    0.6108   -0.0651 C   0  0
   -5.4861    2.9804    0.0206 C   0  0
   -3.9704    2.5816    0.0167 C   0  0
   -3.0170    3.7056   -0.0767 C   0  0
   -1.7009    3.4925   -0.0993 C   0  0
   -1.1767    2.1399   -0.0312 C   0  0
   -2.0139    1.1160    0.0615 C   0  0
   -3.4542    1.3394    0.0922 C   0  0
   -7.9722    4.1251    0.0458 O   0  0
  -13.9894   -0.7908    0.1770 O   0  0
   -1.5209   -0.1838    0.1251 O   0  0
  -14.9535    3.6123   -0.2187 H   0  0
  -12.5118    4.2341   -0.1671 H   0  0
  -11.6247    0.0702    0.2222 H   0  0
  -15.6250    1.3268   -0.0731 H   0  0
  -10.2728    3.8591    0.0306 H   0  0
   -5.7304    0.3292   -0.5574 H   0  0
   -6.6176    0.3063    0.9724 H   0  0
   -7.8450    0.5456   -1.8008 H   0  0
   -7.8020   -0.9297   -0.7823 H   0  0
   -9.9499    0.1980   -0.5738 H   0  0
   -9.0769    0.2250    0.9635 H   0  0
   -5.6692    4.0249    0.0361 H   0  0
   -3.3846    4.6980   -0.1287 H   0  0
   -1.0328    4.3129   -0.1687 H   0  0
   -0.1294    1.9702   -0.0551 H   0  0
   -4.0608    0.5124    0.1733 H   0  0
  -14.9749   -0.8492    0.1347 H   0  0
   -0.5335   -0.1666    0.0884 H   0  0
  1  2  1  0
  2  3  2  0
  3  4  1  0
  4  5  2  0
  5  6  1  0
  6  1  2  0
  3  7  1  0
  7  8  2  0
  8  9  1  0
  9 10  1  0
 10 11  1  0
 11 12  1  0
 12 13  1  0
 13  8  1  0
 10 14  2  0
 14 15  1  0
 15 16  1  0
 16 17  2  0
 17 18  1  0
 18 19  2  0
 19 20  1  0
 20 15  2  0
  9 21  2  0
  5 22  1  0
 19 23  1  0
  1 24  1  0
  2 25  1  0
  4 26  1  0
  6 27  1  0
  7 28  1  0
 11 29  1  0
 11 30  1  0
 12 31  1  0
 12 32  1  0
 13 33  1  0
 13 34  1  0
 14 35  1  0
 16 36  1  0
 17 37  1  0
 18 38  1  0
 20 39  1  0
 22 40  1  0
 23 41  1  0
M  END
> <Name>
MFR2013_RS12

> <Clean Energy>
39.2494

$$$$
MFR2013_RS15
  SciTegic12132405553D

 63 65  0  0  0  0            999 V2000
  -13.6264    2.8155   -2.0144 C   0  0
  -12.1451    3.0393   -1.8806 C   0  0
  -11.3244    2.0792   -1.4715 C   0  0
  -11.8952    0.7619   -1.1256 C   0  0
  -13.2153    0.5370   -1.2343 C   0  0
  -14.1216    1.5922   -1.6966 C   0  0
   -9.8468    2.4966   -1.3972 C   0  0
   -8.7353    1.7692   -1.1244 C   0  0
   -7.4658    2.5223   -1.1100 C   0  0
   -6.1833    1.8784   -0.7615 C   0  0
   -6.1970    0.3873   -0.4860 C   0  0
   -7.3297   -0.3001   -1.2451 C   0  0
   -8.6794    0.2853   -0.8370 C   0  0
   -5.1069    2.7055   -0.7178 C   0  0
   -3.6291    2.4313   -0.3747 C   0  0
   -2.7741    3.5672   -0.5313 C   0  0
   -1.4675    3.5601   -0.2873 C   0  0
   -0.8074    2.1660    0.2222 C   0  0
   -1.6864    1.1240    0.3532 C   0  0
   -3.1027    1.2857    0.0485 C   0  0
   -7.4838    3.7342   -1.3518 O   0  0
  -14.4927    3.8789   -2.4709 O   0  0
  -11.7134    3.9731   -2.1154 H   0  0
  -15.5177    1.1695   -1.7567 O   0  0
   -9.6725    3.5224   -1.5916 H   0  0
   -5.2407   -0.0523   -0.7600 H   0  0
   -6.3523    0.2342    0.5906 H   0  0
   -7.1834   -0.1522   -2.3246 H   0  0
   -7.3176   -1.3752   -1.0190 H   0  0
   -9.4832   -0.2264   -1.3605 H   0  0
   -8.8166    0.1338    0.2423 H   0  0
   -5.3140    3.7151   -0.9589 H   0  0
   -3.2113    4.4740   -0.8640 H   0  0
   -3.7037    0.4576    0.1813 H   0  0
  -13.8456   -0.7220   -0.9129 O   0  0
   -1.3980   -0.2562    0.7925 O   0  0
    0.5859    1.8362    0.5686 O   0  0
   -0.9597    4.9218   -0.5704 O   0  0
  -12.9936   -1.7901   -0.4521 C   0  0
  -13.6045   -2.6807   -0.2475 H   0  0
  -12.4796   -1.4804    0.4703 H   0  0
  -12.2487   -2.0283   -1.2262 H   0  0
    0.3607    5.3944   -0.4552 C   0  0
    0.3886    6.4548   -0.7430 H   0  0
    1.0162    4.8243   -1.1242 H   0  0
    0.6983    5.2960    0.5835 H   0  0
    1.7002    2.6865    0.5342 C   0  0
   -0.0795   -0.7028    1.1580 C   0  0
   -0.1198   -1.7625    1.4474 H   0  0
    0.2885   -0.1058    2.0052 H   0  0
    0.5992   -0.5831    0.3009 H   0  0
    2.5893    2.1242    0.8524 H   0  0
    1.5433    3.5265    1.2204 H   0  0
    1.8537    3.0509   -0.4880 H   0  0
  -16.5344    2.0852   -2.1891 C   0  0
  -17.5118    1.5829   -2.1657 H   0  0
  -16.3180    2.4166   -3.2153 H   0  0
  -16.5545    2.9559   -1.5174 H   0  0
  -13.8745    5.1387   -2.7846 C   0  0
  -14.6455    5.8484   -3.1162 H   0  0
  -13.1380    4.9988   -3.5899 H   0  0
  -13.3730    5.5374   -1.8904 H   0  0
  -11.2672    0.0177   -0.7908 H   0  0
  1  2  1  0
  2  3  2  0
  3  4  1  0
  4  5  2  0
  5  6  1  0
  6  1  2  0
  3  7  1  0
  7  8  2  0
  8  9  1  0
  9 10  1  0
 10 11  1  0
 11 12  1  0
 12 13  1  0
 13  8  1  0
 10 14  2  0
 14 15  1  0
 15 16  1  0
 16 17  2  0
 17 18  1  0
 18 19  2  0
 19 20  1  0
 20 15  2  0
  9 21  2  0
  1 22  1  0
  2 23  1  0
  6 24  1  0
  7 25  1  0
 11 26  1  0
 11 27  1  0
 12 28  1  0
 12 29  1  0
 13 30  1  0
 13 31  1  0
 14 32  1  0
 16 33  1  0
 20 34  1  0
  5 35  1  0
 19 36  1  0
 18 37  1  0
 17 38  1  0
 35 39  1  0
 39 40  1  0
 39 41  1  0
 39 42  1  0
 38 43  1  0
 43 44  1  0
 43 45  1  0
 43 46  1  0
 37 47  1  0
 36 48  1  0
 48 49  1  0
 48 50  1  0
 48 51  1  0
 47 52  1  0
 47 53  1  0
 47 54  1  0
 24 55  1  0
 55 56  1  0
 55 57  1  0
 55 58  1  0
 22 59  1  0
 59 60  1  0
 59 61  1  0
 59 62  1  0
  4 63  1  0
M  END
> <Name>
MFR2013_RS15

> <Clean Energy>
91.2925

$$$$
MFR2013_RS17
  SciTegic12132405553D

 55 57  0  0  0  0            999 V2000
   -8.6046   -3.0154   -0.4807 C   0  0
   -8.0292   -1.6844   -0.4770 C   0  0
   -8.8081   -0.5974   -0.4228 C   0  0
  -10.2627   -0.7741   -0.3571 C   0  0
  -10.8352   -1.9964   -0.3571 C   0  0
   -9.9170   -3.2103   -0.4264 C   0  0
   -8.3510    0.8734   -0.4051 C   0  0
   -7.1167    1.4253   -0.5305 C   0  0
   -7.0648    2.8975   -0.4315 C   0  0
   -5.7868    3.6347   -0.4765 C   0  0
   -4.5203    2.8401   -0.7021 C   0  0
   -4.8067    1.5672   -1.4958 C   0  0
   -5.8107    0.6882   -0.7531 C   0  0
   -5.8755    4.9763   -0.3024 C   0  0
   -4.7805    6.0535   -0.2575 C   0  0
   -3.3421    5.8528   -0.2963 C   0  0
   -2.5197    6.8880   -0.2431 C   0  0
   -2.9805    8.2830   -0.1420 C   0  0
   -4.3521    8.4925   -0.0969 C   0  0
   -5.2268    7.2984   -0.1582 C   0  0
   -8.1151    3.5261   -0.2600 O   0  0
   -7.9602   -3.8560   -0.5272 H   0  0
   -6.9983   -1.6021   -0.5110 H   0  0
  -10.3299   -4.5963   -0.4384 O   0  0
   -9.1371    1.5694   -0.2707 H   0  0
   -3.7860    3.4486   -1.2228 H   0  0
   -4.1069    2.5590    0.2759 H   0  0
   -5.2209    1.8387   -2.4774 H   0  0
   -3.8706    1.0094   -1.6364 H   0  0
   -5.9894   -0.2295   -1.3087 H   0  0
   -5.3888    0.4239    0.2260 H   0  0
   -6.8588    5.3465   -0.1737 H   0  0
   -2.9327    4.8986   -0.3588 H   0  0
   -1.4760    6.7040   -0.2718 H   0  0
   -6.2757    7.4487   -0.1239 H   0  0
  -12.2765   -2.1736   -0.2934 O   0  0
   -5.2325    9.6815    0.0026 O   0  0
   -1.7782    9.1506   -0.1108 O   0  0
  -13.1035   -0.9941   -0.2290 C   0  0
  -14.1603   -1.2932   -0.1859 H   0  0
  -12.9357   -0.3760   -1.1235 H   0  0
  -12.8515   -0.4150    0.6719 H   0  0
   -4.8560   11.0377    0.0854 C   0  0
   -5.7610   11.6583    0.1474 H   0  0
   -4.2894   11.3188   -0.8107 H   0  0
   -4.2491   11.1980    0.9849 H   0  0
   -1.7224   10.5565   -0.0189 C   0  0
   -0.6704   10.8749   -0.0213 H   0  0
   -2.1940   10.8844    0.9155 H   0  0
   -2.2340   11.0034   -0.8802 H   0  0
  -10.8438    0.1032   -0.3105 H   0  0
  -11.7277   -4.8894   -0.3818 C   0  0
  -11.8732   -5.9788   -0.3994 H   0  0
  -12.2329   -4.4390   -1.2486 H   0  0
  -12.1519   -4.4789    0.5462 H   0  0
  1  2  1  0
  2  3  2  0
  3  4  1  0
  4  5  2  0
  5  6  1  0
  6  1  2  0
  3  7  1  0
  7  8  2  0
  8  9  1  0
  9 10  1  0
 10 11  1  0
 11 12  1  0
 12 13  1  0
 13  8  1  0
 10 14  2  0
 14 15  1  0
 15 16  1  0
 16 17  2  0
 17 18  1  0
 18 19  2  0
 19 20  1  0
 20 15  2  0
  9 21  2  0
  1 22  1  0
  2 23  1  0
  6 24  1  0
  7 25  1  0
 11 26  1  0
 11 27  1  0
 12 28  1  0
 12 29  1  0
 13 30  1  0
 13 31  1  0
 14 32  1  0
 16 33  1  0
 17 34  1  0
 20 35  1  0
  5 36  1  0
 19 37  1  0
 18 38  1  0
 36 39  1  0
 39 40  1  0
 39 41  1  0
 39 42  1  0
 37 43  1  0
 43 44  1  0
 43 45  1  0
 43 46  1  0
 38 47  1  0
 47 48  1  0
 47 49  1  0
 47 50  1  0
  4 51  1  0
 24 52  1  0
 52 53  1  0
 52 54  1  0
 52 55  1  0
M  END
> <Name>
MFR2013_RS17

> <Clean Energy>
82.0526

$$$$
MFR2013_RS21
  SciTegic12132405553D

 47 49  0  0  0  0            999 V2000
  -14.1261    2.9678   -0.0611 C   0  0
  -12.6874    3.2210   -0.1074 C   0  0
  -11.8027    2.2257   -0.0641 C   0  0
  -12.3263    0.8298    0.0475 C   0  0
  -13.6358    0.5965    0.0915 C   0  0
  -14.6004    1.7299    0.0316 C   0  0
  -10.3334    2.6683   -0.1198 C   0  0
   -9.1946    1.9357   -0.1765 C   0  0
   -7.9362    2.7065   -0.1865 C   0  0
   -6.6181    2.0418   -0.1702 C   0  0
   -6.5929    0.5269   -0.2149 C   0  0
   -7.8248   -0.0188   -0.9339 C   0  0
   -9.1008    0.4284   -0.2235 C   0  0
   -5.5447    2.8707   -0.1108 C   0  0
   -4.0367    2.5663   -0.0500 C   0  0
   -3.1730    3.7517   -0.0950 C   0  0
   -1.8477    3.6490   -0.0458 C   0  0
   -1.2118    2.3099    0.0592 C   0  0
   -1.9943    1.2371    0.1041 C   0  0
   -3.4520    1.3617    0.0507 C   0  0
   -7.9876    3.9411   -0.1607 O   0  0
  -14.8018    3.7838   -0.1028 H   0  0
  -12.3390    4.2197   -0.1807 H   0  0
  -16.0209    1.5712    0.0707 O   0  0
  -10.1911    3.7173   -0.1099 H   0  0
   -5.6869    0.1825   -0.7081 H   0  0
   -6.5916    0.1480    0.8161 H   0  0
   -7.8358    0.3567   -1.9671 H   0  0
   -7.7819   -1.1166   -0.9449 H   0  0
   -9.9720    0.0161   -0.7245 H   0  0
   -9.0813    0.0485    0.8070 H   0  0
   -5.7795    3.9028   -0.1032 H   0  0
   -3.6164    4.7119   -0.1695 H   0  0
   -1.2690    4.5341   -0.0824 H   0  0
   -4.0163    0.4949    0.0993 H   0  0
  -13.9673   -0.4050    0.1727 H   0  0
   -1.5556    0.2750    0.1809 H   0  0
    0.2010    2.0988    0.1172 O   0  0
    1.0044    3.2881    0.0662 C   0  0
  -11.6781    0.0165    0.0999 H   0  0
  -16.4875    0.2168    0.1722 C   0  0
    2.0670    3.0113    0.1173 H   0  0
    0.7562    3.9387    0.9179 H   0  0
    0.8125    3.8236   -0.8755 H   0  0
  -17.5865    0.2118    0.1943 H   0  0
  -16.1026   -0.2383    1.0969 H   0  0
  -16.1381   -0.3606   -0.6966 H   0  0
  1  2  1  0
  2  3  2  0
  3  4  1  0
  4  5  2  0
  5  6  1  0
  6  1  2  0
  3  7  1  0
  7  8  2  0
  8  9  1  0
  9 10  1  0
 10 11  1  0
 11 12  1  0
 12 13  1  0
 13  8  1  0
 10 14  2  0
 14 15  1  0
 15 16  1  0
 16 17  2  0
 17 18  1  0
 18 19  2  0
 19 20  1  0
 20 15  2  0
  9 21  2  0
  1 22  1  0
  2 23  1  0
  6 24  1  0
  7 25  1  0
 11 26  1  0
 11 27  1  0
 12 28  1  0
 12 29  1  0
 13 30  1  0
 13 31  1  0
 14 32  1  0
 16 33  1  0
 17 34  1  0
 20 35  1  0
  5 36  1  0
 19 37  1  0
 18 38  1  0
 38 39  1  0
  4 40  1  0
 24 41  1  0
 39 42  1  0
 39 43  1  0
 39 44  1  0
 41 45  1  0
 41 46  1  0
 41 47  1  0
M  END
> <Name>
MFR2013_RS21

> <Clean Energy>
41.7213

$$$$
MFR2013_RI57
  SciTegic12132405553D

 49 51  0  0  0  0            999 V2000
  -14.1367    3.0470   -0.1199 C   0  0
  -12.7007    3.2664   -0.1265 C   0  0
  -11.8464    2.2459   -0.1595 C   0  0
  -12.4062    0.8544   -0.1753 C   0  0
  -13.7388    0.6546   -0.1678 C   0  0
  -14.6310    1.8156   -0.1413 C   0  0
  -10.3649    2.6516   -0.1603 C   0  0
   -9.2439    1.8981   -0.2756 C   0  0
   -7.9670    2.6348   -0.2023 C   0  0
   -6.6651    1.9394   -0.2401 C   0  0
   -6.6762    0.4344   -0.4288 C   0  0
   -7.9139   -0.0099   -1.2047 C   0  0
   -9.1852    0.3994   -0.4645 C   0  0
   -5.5732    2.7335   -0.0949 C   0  0
   -4.0725    2.3908   -0.0535 C   0  0
   -3.1840    3.5561    0.0180 C   0  0
   -1.8633    3.4162    0.0650 C   0  0
   -1.2637    2.0974    0.0480 C   0  0
   -2.0256    1.0111   -0.0119 C   0  0
   -3.5172    1.1672   -0.0628 C   0  0
   -7.9891    3.8623   -0.0598 O   0  0
  -14.7955    3.8776   -0.0989 H   0  0
  -12.3252    4.2579   -0.1090 H   0  0
  -16.0127    1.6357   -0.1351 O   0  0
  -10.1960    3.6909   -0.0515 H   0  0
   -5.7742    0.1156   -0.9465 H   0  0
   -6.6933   -0.0405    0.5615 H   0  0
   -7.9062    0.4618   -2.1978 H   0  0
   -7.8971   -1.1025   -1.3195 H   0  0
  -10.0612    0.0576   -1.0091 H   0  0
   -9.1848   -0.0767    0.5254 H   0  0
   -5.7848    3.7654    0.0090 H   0  0
   -3.6050    4.5292    0.0316 H   0  0
   -1.2440    4.2754    0.1155 H   0  0
   -4.1164    0.3324   -0.0983 H   0  0
    0.1178    1.9683    0.0959 O   0  0
  -14.3636   -0.6465   -0.1804 O   0  0
  -13.4903   -1.7925   -0.2056 C   0  0
  -14.0946   -2.7107   -0.2133 H   0  0
  -12.8474   -1.7863    0.6874 H   0  0
  -12.8643   -1.7598   -1.1100 H   0  0
   -1.3578   -0.2542   -0.0235 O   0  0
   -2.2137   -1.4063   -0.0902 C   0  0
   -1.5983   -2.3170   -0.0939 H   0  0
   -2.8136   -1.3678   -1.0119 H   0  0
   -2.8818   -1.4212    0.7838 H   0  0
    0.5298    2.8667    0.1378 H   0  0
  -11.7583    0.0517   -0.1848 H   0  0
  -16.2267    0.6724   -0.1520 H   0  0
  1  2  1  0
  2  3  2  0
  3  4  1  0
  4  5  2  0
  5  6  1  0
  6  1  2  0
  3  7  1  0
  7  8  2  0
  8  9  1  0
  9 10  1  0
 10 11  1  0
 11 12  1  0
 12 13  1  0
 13  8  1  0
 10 14  2  0
 14 15  1  0
 15 16  1  0
 16 17  2  0
 17 18  1  0
 18 19  2  0
 19 20  1  0
 20 15  2  0
  9 21  2  0
  1 22  1  0
  2 23  1  0
  6 24  1  0
  7 25  1  0
 11 26  1  0
 11 27  1  0
 12 28  1  0
 12 29  1  0
 13 30  1  0
 13 31  1  0
 14 32  1  0
 16 33  1  0
 17 34  1  0
 20 35  1  0
 18 36  1  0
  5 37  1  0
 37 38  1  0
 38 39  1  0
 38 40  1  0
 38 41  1  0
 19 42  1  0
 42 43  1  0
 43 44  1  0
 43 45  1  0
 43 46  1  0
 36 47  1  0
  4 48  1  0
 24 49  1  0
M  END
> <Name>
MFR2013_RI57

> <Clean Energy>
41.5240325927734

$$$$
MFR2013_RS11
  SciTegic12132405553D

 34 35  0  0  0  0            999 V2000
  -14.1448    2.6112   -0.0994 C   0  0
  -12.8357    3.2643   -0.0956 C   0  0
  -11.7213    2.5358   -0.0889 C   0  0
  -11.8175    1.0621   -0.0853 C   0  0
  -13.0116    0.4736   -0.0889 C   0  0
  -14.2277    1.2831   -0.0962 C   0  0
  -10.4193    3.2374   -0.0852 C   0  0
   -9.2581    2.5807   -0.0787 C   0  0
   -8.0083    3.3299   -0.0755 C   0  0
   -6.7376    2.6166   -0.0686 C   0  0
   -5.5951    3.3073   -0.0661 C   0  0
   -4.2621    2.6525   -0.0592 C   0  0
   -3.0730    3.5076   -0.0571 C   0  0
   -1.8562    2.9685   -0.0511 C   0  0
   -1.7001    1.5183   -0.0465 C   0  0
   -2.7745    0.7338   -0.0483 C   0  0
   -4.1148    1.3225   -0.0550 C   0  0
   -8.0260    4.5658   -0.0788 O   0  0
  -15.0288    3.1969   -0.1048 H   0  0
  -12.7730    4.3228   -0.0981 H   0  0
  -15.4711    0.6647   -0.0999 O   0  0
  -10.4099    4.2976   -0.0880 H   0  0
   -5.6397    4.3667   -0.0691 H   0  0
   -3.1832    4.5622   -0.0604 H   0  0
   -0.9995    3.5935   -0.0496 H   0  0
   -4.9585    0.6859   -0.0564 H   0  0
  -13.0805   -0.5845   -0.0863 H   0  0
   -2.6596   -0.3204   -0.0449 H   0  0
  -10.9424    0.4668   -0.0800 H   0  0
   -0.4296    0.9580   -0.0402 O   0  0
   -9.2316    1.5240   -0.0758 H   0  0
   -6.7346    1.5592   -0.0658 H   0  0
    0.2471    1.6798   -0.0397 H   0  0
  -15.3490   -0.3171   -0.0968 H   0  0
  1  2  1  0
  2  3  2  0
  3  4  1  0
  4  5  2  0
  5  6  1  0
  6  1  2  0
  3  7  1  0
  7  8  2  0
  8  9  1  0
  9 10  1  0
 10 11  2  0
 11 12  1  0
 12 13  1  0
 13 14  2  0
 14 15  1  0
 15 16  2  0
 16 17  1  0
 17 12  2  0
  9 18  2  0
  1 19  1  0
  2 20  1  0
  6 21  1  0
  7 22  1  0
 11 23  1  0
 13 24  1  0
 14 25  1  0
 17 26  1  0
  5 27  1  0
 16 28  1  0
  4 29  1  0
 15 30  1  0
  8 31  1  0
 10 32  1  0
 30 33  1  0
 21 34  1  0
M  END
> <Name>
MFR2013_RS11

> <Clean Energy>
-4.81760549545288

$$$$
MFR2013_RS14
  SciTegic12132405553D

 48 49  0  0  0  0            999 V2000
  -13.9103    2.4743    0.6415 C   0  0
  -12.5670    2.9855    0.4714 C   0  0
  -11.5507    2.1692    0.2255 C   0  0
  -11.7824    0.7231    0.1078 C   0  0
  -13.0312    0.2341    0.2564 C   0  0
  -14.1475    1.1547    0.5444 C   0  0
  -10.2184    2.7818    0.0909 C   0  0
   -9.0894    2.0862   -0.0607 C   0  0
   -7.8411    2.8468   -0.1476 C   0  0
   -6.5281    2.2011   -0.1797 C   0  0
   -5.4546    2.9961   -0.1985 C   0  0
   -4.0585    2.5099   -0.1906 C   0  0
   -3.0218    3.5079   -0.1913 C   0  0
   -1.7425    3.1649   -0.1638 C   0  0
   -1.3350    1.7163   -0.1323 C   0  0
   -2.3222    0.7776   -0.1378 C   0  0
   -3.7360    1.2171   -0.1682 C   0  0
   -7.8957    4.0813   -0.1393 O   0  0
  -14.6806    3.1670    0.8460 H   0  0
  -12.3892    4.0271    0.5558 H   0  0
  -15.4481    0.5550    0.7085 O   0  0
  -10.1524    3.8379    0.1378 H   0  0
   -5.6107    4.0438   -0.2040 H   0  0
   -3.2872    4.5341   -0.2114 H   0  0
   -1.0260    3.9404   -0.1639 H   0  0
   -4.4981    0.4829   -0.1638 H   0  0
  -10.9609    0.0929   -0.0969 H   0  0
    0.0630    1.3481   -0.0944 O   0  0
   -9.0874    1.0266   -0.0941 H   0  0
   -6.4404    1.1449   -0.1666 H   0  0
  -13.3773   -1.1590    0.1527 O   0  0
  -12.3105   -2.0753   -0.1429 C   0  0
  -12.7145   -3.0970   -0.1940 H   0  0
  -11.5481   -2.0233    0.6472 H   0  0
  -11.8581   -1.8138   -1.1111 H   0  0
    1.0198    2.4243   -0.0817 C   0  0
    2.0361    2.0070   -0.0507 H   0  0
    0.8578    3.0527    0.8075 H   0  0
    0.9043    3.0339   -0.9901 H   0  0
   -2.1491   -0.6711   -0.1086 O   0  0
   -0.8278   -1.2352   -0.0683 C   0  0
   -0.8979   -2.3317   -0.0508 H   0  0
   -0.3076   -0.8879    0.8372 H   0  0
   -0.2651   -0.9190   -0.9592 H   0  0
  -16.5416    1.4478    1.0077 C   0  0
  -17.4694    0.8677    1.1092 H   0  0
  -16.6561    2.1796    0.1942 H   0  0
  -16.3380    1.9765    1.9521 H   0  0
  1  2  1  0
  2  3  2  0
  3  4  1  0
  4  5  2  0
  5  6  1  0
  6  1  2  0
  3  7  1  0
  7  8  2  0
  8  9  1  0
  9 10  1  0
 10 11  2  0
 11 12  1  0
 12 13  1  0
 13 14  2  0
 14 15  1  0
 15 16  2  0
 16 17  1  0
 17 12  2  0
  9 18  2  0
  1 19  1  0
  2 20  1  0
  6 21  1  0
  7 22  1  0
 11 23  1  0
 13 24  1  0
 14 25  1  0
 17 26  1  0
  4 27  1  0
 15 28  1  0
  8 29  1  0
 10 30  1  0
  5 31  1  0
 31 32  1  0
 32 33  1  0
 32 34  1  0
 32 35  1  0
 28 36  1  0
 36 37  1  0
 36 38  1  0
 36 39  1  0
 16 40  1  0
 40 41  1  0
 41 42  1  0
 41 43  1  0
 41 44  1  0
 21 45  1  0
 45 46  1  0
 45 47  1  0
 45 48  1  0
M  END
> <Name>
MFR2013_RS14

> <Clean Energy>
10.7542448043823

$$$$
MFR2013_RS24
  SciTegic12132405553D

 40 41  0  0  0  0            999 V2000
  -14.1637    2.5900    0.0587 C   0  0
  -12.8608    3.2451   -0.0454 C   0  0
  -11.7381    2.5364    0.0307 C   0  0
  -11.8106    1.0776    0.2215 C   0  0
  -12.9911    0.4703    0.3175 C   0  0
  -14.2519    1.2728    0.2313 C   0  0
  -10.4468    3.2497   -0.0807 C   0  0
   -9.2751    2.6151   -0.0149 C   0  0
   -8.0380    3.3762   -0.1314 C   0  0
   -6.7556    2.6877   -0.0598 C   0  0
   -5.6251    3.3899   -0.1665 C   0  0
   -4.2805    2.7615   -0.1034 C   0  0
   -3.1120    3.6279   -0.2313 C   0  0
   -1.8818    3.1228   -0.1825 C   0  0
   -1.6894    1.6525    0.0052 C   0  0
   -2.7645    0.8760    0.1202 C   0  0
   -4.1108    1.4462    0.0646 C   0  0
   -8.0763    4.6014   -0.2900 O   0  0
  -15.0488    3.1704   -0.0041 H   0  0
  -12.8095    4.2953   -0.1827 H   0  0
  -15.5619    0.7086    0.3237 O   0  0
  -10.4542    4.3011   -0.2173 H   0  0
   -5.6880    4.4396   -0.3018 H   0  0
   -3.2461    4.6712   -0.3646 H   0  0
   -1.0584    3.7805   -0.2787 H   0  0
   -4.9449    0.8042    0.1590 H   0  0
  -13.0123   -0.5788    0.4544 H   0  0
   -2.6433   -0.1688    0.2538 H   0  0
  -10.9247    0.5021    0.2836 H   0  0
   -0.4099    1.0189    0.0701 O   0  0
   -9.2313    1.5678    0.1207 H   0  0
   -6.7349    1.6393    0.0760 H   0  0
    0.7189    1.8972   -0.0587 C   0  0
    1.6457    1.3097    0.0049 H   0  0
    0.7029    2.6409    0.7519 H   0  0
    0.6790    2.4103   -1.0311 H   0  0
  -15.6073   -0.7144    0.5096 C   0  0
  -16.6556   -1.0401    0.5672 H   0  0
  -15.0911   -0.9818    1.4436 H   0  0
  -15.1169   -1.2139   -0.3391 H   0  0
  1  2  1  0
  2  3  2  0
  3  4  1  0
  4  5  2  0
  5  6  1  0
  6  1  2  0
  3  7  1  0
  7  8  2  0
  8  9  1  0
  9 10  1  0
 10 11  2  0
 11 12  1  0
 12 13  1  0
 13 14  2  0
 14 15  1  0
 15 16  2  0
 16 17  1  0
 17 12  2  0
  9 18  2  0
  1 19  1  0
  2 20  1  0
  6 21  1  0
  7 22  1  0
 11 23  1  0
 13 24  1  0
 14 25  1  0
 17 26  1  0
  5 27  1  0
 16 28  1  0
  4 29  1  0
 15 30  1  0
  8 31  1  0
 10 32  1  0
 30 33  1  0
 33 34  1  0
 33 35  1  0
 33 36  1  0
 21 37  1  0
 37 38  1  0
 37 39  1  0
 37 40  1  0
M  END
> <Name>
MFR2013_RS24

> <Clean Energy>
-1.18092167377472

$$$$
MFR2013_RI58
  SciTegic12132405553D

 42 43  0  0  0  0            999 V2000
  -13.9391    2.5362    1.8319 C   0  0
  -12.6577    3.1749    1.5875 C   0  0
  -11.5585    2.4528    1.4191 C   0  0
  -11.6265    0.9855    1.4789 C   0  0
  -12.7759    0.3466    1.7007 C   0  0
  -14.0577    1.2109    1.8960 C   0  0
  -10.2869    3.1690    1.1740 C   0  0
   -9.1294    2.5315    0.9899 C   0  0
   -7.9171    3.3064    0.7541 C   0  0
   -6.6440    2.6260    0.5479 C   0  0
   -5.5428    3.3504    0.3353 C   0  0
   -4.2064    2.7409    0.1155 C   0  0
   -3.0833    3.6298   -0.1022 C   0  0
   -1.8670    3.1385   -0.3041 C   0  0
   -1.6318    1.6942   -0.3120 C   0  0
   -2.6718    0.8478   -0.1100 C   0  0
   -4.0107    1.4193    0.1119 C   0  0
   -7.9686    4.5410    0.7287 O   0  0
  -14.8013    3.1393    1.9625 H   0  0
  -12.5995    4.2328    1.5429 H   0  0
  -15.3838    0.7547    2.1422 O   0  0
  -10.2977    4.2287    1.1438 H   0  0
   -5.6243    4.4074    0.3227 H   0  0
   -3.2350    4.6792   -0.0999 H   0  0
   -1.0547    3.8016   -0.4619 H   0  0
   -4.8226    0.7616    0.2694 H   0  0
  -10.7466    0.4139    1.3442 H   0  0
   -0.3172    1.2815   -0.5332 O   0  0
   -9.0791    1.4757    1.0126 H   0  0
   -6.6068    1.5692    0.5688 H   0  0
    0.2609    2.0747   -0.6529 H   0  0
  -12.6342   -1.0997    1.7240 O   0  0
  -13.7603   -1.9283    1.9488 C   0  0
  -13.4495   -2.9825    1.9297 H   0  0
  -14.5073   -1.7517    1.1614 H   0  0
  -14.1978   -1.6925    2.9298 H   0  0
   -2.6156   -0.6044   -0.0868 O   0  0
   -1.3549   -1.2594   -0.2937 C   0  0
   -1.4969   -2.3483   -0.2440 H   0  0
   -0.6457   -0.9476    0.4871 H   0  0
   -0.9571   -0.9877   -1.2826 H   0  0
  -15.4746   -0.1806    2.1885 H   0  0
  1  2  1  0
  2  3  2  0
  3  4  1  0
  4  5  2  0
  5  6  1  0
  6  1  2  0
  3  7  1  0
  7  8  2  0
  8  9  1  0
  9 10  1  0
 10 11  2  0
 11 12  1  0
 12 13  1  0
 13 14  2  0
 14 15  1  0
 15 16  2  0
 16 17  1  0
 17 12  2  0
  9 18  2  0
  1 19  1  0
  2 20  1  0
  6 21  1  0
  7 22  1  0
 11 23  1  0
 13 24  1  0
 14 25  1  0
 17 26  1  0
  4 27  1  0
 15 28  1  0
  8 29  1  0
 10 30  1  0
 28 31  1  0
  5 32  1  0
 32 33  1  0
 33 34  1  0
 33 35  1  0
 33 36  1  0
 16 37  1  0
 37 38  1  0
 38 39  1  0
 38 40  1  0
 38 41  1  0
 21 42  1  0
M  END
> <Name>
MFR2013_RI58

> <Clean Energy>
11.6429128646851

$$$$
MRF2013_RI58A
  SciTegic12132405553D

 26 26  0  0  0  0            999 V2000
  -11.9796    3.1425   -0.0064 O   0  0
  -10.8312    2.2298   -0.0001 C   0  0
  -10.7897    0.8592    0.0279 C   0  0
  -11.8809   -0.0640    0.0587 O   0  0
   -9.5490    2.9593   -0.0289 C   0  0
   -8.3789    2.3333   -0.0279 C   0  0
   -8.3442    0.8840    0.0017 C   0  0
   -9.4764    0.1943    0.0278 C   0  0
   -7.1439    3.1488   -0.0570 C   0  0
   -5.9278    2.5997   -0.0549 C   0  0
   -4.7502    3.4581   -0.0834 C   0  0
   -3.3844    2.8453   -0.0781 C   0  0
   -4.8780    4.6872   -0.1105 O   0  0
  -13.3236    2.6813    0.0185 C   0  0
  -12.7330    0.3200    0.0598 H   0  0
   -9.5624    4.0192   -0.0506 H   0  0
   -7.4202    0.3684    0.0027 H   0  0
   -9.4348   -0.8650    0.0492 H   0  0
   -7.2299    4.2053   -0.0796 H   0  0
   -5.8058    1.5502   -0.0322 H   0  0
   -2.6054    3.6213   -0.0815 H   0  0
   -3.2885    2.1907   -0.9563 H   0  0
   -3.2910    2.1958    0.8042 H   0  0
  -14.0068    3.5425    0.0082 H   0  0
  -13.4909    2.0912    0.9313 H   0  0
  -13.5114    2.0534   -0.8645 H   0  0
  1  2  1  0
  2  3  2  0
  3  4  1  0
  2  5  1  0
  5  6  2  0
  6  7  1  0
  7  8  2  0
  8  3  1  0
  6  9  1  0
  9 10  2  0
 10 11  1  0
 11 12  1  0
 11 13  2  0
  1 14  1  0
  4 15  1  0
  5 16  1  0
  7 17  1  0
  8 18  1  0
  9 19  1  0
 10 20  1  0
 12 21  1  0
 12 22  1  0
 12 23  1  0
 14 24  1  0
 14 25  1  0
 14 26  1  0
M  END
> <Name>
MRF2013_RI58A

> <Clean Energy>
23.62994

$$$$
MRF2013_RI74
  SciTegic12132405553D

 33 33  0  0  0  0            999 V2000
  -11.7920    2.1801    0.0844 O   0  0
  -10.6752    1.2284    0.0883 C   0  0
  -10.6823   -0.1436    0.0896 C   0  0
  -11.8062   -1.0287    0.0956 O   0  0
   -9.3624    1.9114    0.0783 C   0  0
   -8.2182    1.2433    0.0695 C   0  0
   -8.2371   -0.2075    0.0735 C   0  0
   -9.3964   -0.8551    0.0852 C   0  0
   -6.9447    2.0083    0.0316 C   0  0
   -5.7567    1.4069   -0.0433 C   0  0
   -4.5360    2.2056   -0.1382 C   0  0
   -3.2504    1.4575   -0.3786 C   0  0
   -4.6598    3.4892   -0.1083 N   0  0
   -3.7251    4.5115   -0.2409 N   0  0
   -2.4266    4.6031    0.3681 C   0  0
   -1.6573    5.7361    0.0842 N   0  0
   -1.8580    3.5409    1.3679 S   0  0
  -13.1525    1.7635    0.0788 C   0  0
  -12.6445   -0.6162    0.0980 H   0  0
   -9.3383    2.9722    0.0692 H   0  0
   -7.3354   -0.7582    0.0676 H   0  0
   -9.3927   -1.9150    0.0872 H   0  0
   -6.9886    3.0685    0.0387 H   0  0
   -5.6851    0.3524   -0.0698 H   0  0
   -2.5312    2.0835   -0.9205 H   0  0
   -3.4590    0.5134   -0.9030 H   0  0
   -2.8192    1.2038    0.6016 H   0  0
   -4.0228    5.3113   -0.7489 H   0  0
   -2.0210    6.4447   -0.5151 H   0  0
   -0.7506    5.8370    0.4791 H   0  0
  -13.8071    2.6466    0.0752 H   0  0
  -13.3548    1.1604    0.9755 H   0  0
  -13.3462    1.1602   -0.8208 H   0  0
  1  2  1  0
  2  3  2  0
  3  4  1  0
  2  5  1  0
  5  6  2  0
  6  7  1  0
  7  8  2  0
  8  3  1  0
  6  9  1  0
  9 10  2  0
 10 11  1  0
 11 12  1  0
 11 13  2  0
 13 14  1  0
 14 15  1  0
 15 16  1  0
 15 17  2  0
  1 18  1  0
  4 19  1  0
  5 20  1  0
  7 21  1  0
  8 22  1  0
  9 23  1  0
 10 24  1  0
 12 25  1  0
 12 26  1  0
 12 27  1  0
 14 28  1  0
 16 29  1  0
 16 30  1  0
 18 31  1  0
 18 32  1  0
 18 33  1  0
M  END
> <Name>
MRF2013_RI74

> <Clean Energy>
35.852329

$$$$
MRF2013_RI72
  SciTegic12132405553D

 26 25  0  0  0  0            999 V2000
   -8.1063    1.3885    0.5657 C   0  0
   -6.8809    2.2228    0.1655 C   0  0
   -5.6290    1.3320    0.1910 C   0  0
   -4.4334    2.1424   -0.1954 C   0  0
   -3.3202    1.4406   -0.9731 C   0  0
   -4.4082    3.3782    0.1393 N   0  0
   -3.4405    4.2354   -0.1927 N   0  0
   -2.9928    5.1616    0.7414 C   0  0
   -1.9627    6.0365    0.4125 N   0  0
   -3.6054    5.1741    2.1831 S   0  0
   -7.0248    2.6232   -0.8481 H   0  0
   -5.7269    0.4690   -0.4825 H   0  0
   -3.0213    4.2041   -1.0960 H   0  0
   -1.5694    6.0163   -0.5019 H   0  0
   -1.6129    6.6729    1.0904 H   0  0
   -1.9176    1.6924   -0.3514 C   0  0
   -3.5279    0.3611   -1.0143 H   0  0
   -3.2934    1.8525   -1.9891 H   0  0
   -1.1565    1.1602   -0.9384 H   0  0
   -1.9007    1.3331    0.6858 H   0  0
   -1.6960    2.7672   -0.3676 H   0  0
   -9.0040    2.0240    0.5490 H   0  0
   -7.9603    0.9842    1.5767 H   0  0
   -8.2303    0.5599   -0.1469 H   0  0
   -6.7549    3.0541    0.8741 H   0  0
   -5.4944    0.9643    1.2174 H   0  0
  1  2  1  0
  2  3  1  0
  3  4  1  0
  4  5  1  0
  4  6  2  0
  6  7  1  0
  7  8  1  0
  8  9  1  0
  8 10  2  0
  2 11  1  0
  3 12  1  0
  7 13  1  0
  9 14  1  0
  9 15  1  0
  5 16  1  0
  5 17  1  0
  5 18  1  0
 16 19  1  0
 16 20  1  0
 16 21  1  0
  1 22  1  0
  1 23  1  0
  1 24  1  0
  2 25  1  0
  3 26  1  0
M  END
> <Name>
MRF2013_RI72

> <Clean Energy>
26.36335

$$$$
MRF2013_RI81
  SciTegic12132405553D

 23 22  0  0  0  0            999 V2000
   -4.8298    2.0240   -0.2037 C   0  0
   -4.4816    3.0728    0.4191 N   0  0
   -3.5211    3.8410   -0.0682 N   0  0
   -3.1444    4.9931    0.6143 C   0  0
   -2.1323    5.8050    0.1042 N   0  0
   -3.8580    5.3757    1.9528 S   0  0
   -3.0702    3.5955   -0.9196 H   0  0
   -1.6803    5.5594   -0.7471 H   0  0
   -1.8627    6.6291    0.5915 H   0  0
   -5.9127    1.1592    0.3478 C   0  0
   -6.8579    1.9979    1.2136 C   0  0
   -7.6419    1.3495    1.6291 H   0  0
   -7.3174    2.7826    0.5967 H   0  0
   -6.2896    2.4595    2.0336 H   0  0
   -6.6595    0.4733   -0.7981 C   0  0
   -7.4428   -0.1772   -0.3842 H   0  0
   -5.9520   -0.1294   -1.3846 H   0  0
   -7.1169    1.2361   -1.4434 H   0  0
   -5.2829    0.0766    1.2260 C   0  0
   -6.0747   -0.5663    1.6353 H   0  0
   -4.7312    0.5513    2.0495 H   0  0
   -4.5934   -0.5282    0.6207 H   0  0
   -4.3527    1.7622   -1.1133 H   0  0
  1  2  2  0
  2  3  1  0
  3  4  1  0
  4  5  1  0
  4  6  2  0
  3  7  1  0
  5  8  1  0
  5  9  1  0
  1 10  1  0
 10 11  1  0
 11 12  1  0
 11 13  1  0
 11 14  1  0
 10 15  1  0
 15 16  1  0
 15 17  1  0
 15 18  1  0
 10 19  1  0
 19 20  1  0
 19 21  1  0
 19 22  1  0
  1 23  1  0
M  END
> <Name>
MRF2013_RI81

> <Clean Energy>
7.867707

$$$$
MRF2013_RI20
  SciTegic12132405553D

 47 50  0  0  0  0            999 V2000
   -9.2409    3.5944    0.0495 H   0  0
   -8.2052    3.8233    0.0464 C   0  0
   -7.7984    5.0848    0.1344 C   0  0
   -6.3631    5.4168    0.1282 C   0  0
   -5.4331    4.4579    0.0404 C   0  0
   -5.9364    3.0311   -0.0636 C   0  0
   -7.2335    2.7582   -0.0583 C   0  0
   -3.9434    4.9520    0.0230 C   0  0
   -2.8003    4.2130   -0.0100 C   0  0
   -1.4821    4.9231   -0.1105 C   0  0
   -0.2715    4.0760   -0.2907 C   0  0
   -0.4772    2.6248   -0.7005 C   0  0
   -1.4249    2.0468    0.2828 C   0  0
   -2.7794    2.7024   -0.0005 C   0  0
   -1.4387    6.2195   -0.0011 N   0  0
   -0.3587    7.2076   -0.0018 N   0  0
    1.1055    6.9992    0.0644 C   0  0
    2.2618    8.2255    0.0275 S   0  0
    3.6080    7.2353    0.0783 C   0  0
    3.1702    5.9743    0.1333 C   0  0
    1.7219    5.8814    0.1393 N   0  0
    4.0095    4.7564    0.1486 C   0  0
    5.4767    4.8075    0.0823 C   0  0
    6.1779    3.6714    0.0714 C   0  0
    5.4872    2.3776    0.1282 C   0  0
    4.1610    2.3378    0.1932 C   0  0
    3.3977    3.5742    0.2031 C   0  0
    6.3900    0.9046    0.1084 Cl  0  0
   -8.5168    5.8610    0.2076 H   0  0
   -6.0604    6.4285    0.1921 H   0  0
   -5.2759    2.2342   -0.1495 H   0  0
   -7.5609    1.7506   -0.1355 H   0  0
   -3.8113    6.0031    0.0136 H   0  0
    0.4055    4.5653   -0.9953 H   0  0
    0.2332    4.0775    0.6863 H   0  0
   -0.9015    2.5355   -1.7093 H   0  0
    0.4985    2.1204   -0.6570 H   0  0
   -1.5308    0.9649    0.1406 H   0  0
   -1.0659    2.2582    1.3023 H   0  0
   -3.1044    2.3905   -1.0012 H   0  0
   -3.5244    2.3319    0.7061 H   0  0
   -0.6505    8.1584   -0.0331 H   0  0
    4.6224    7.5495    0.0516 H   0  0
    5.9786    5.7389    0.0384 H   0  0
    7.2358    3.7012    0.0200 H   0  0
    3.6567    1.4038    0.2327 H   0  0
    2.3528    3.5326    0.2473 H   0  0
  1  2  1  0
  2  3  2  0
  3  4  1  0
  4  5  2  0
  5  6  1  0
  6  7  2  0
  7  2  1  0
  5  8  1  0
  8  9  2  0
  9 10  1  0
 10 11  1  0
 11 12  1  0
 12 13  1  0
 13 14  1  0
 14  9  1  0
 10 15  2  0
 15 16  1  0
 16 17  1  0
 17 18  1  0
 18 19  1  0
 19 20  2  0
 20 21  1  0
 21 17  2  0
 20 22  1  0
 22 23  1  0
 23 24  2  0
 24 25  1  0
 25 26  2  0
 26 27  1  0
 27 22  2  0
 25 28  1  0
  3 29  1  0
  4 30  1  0
  6 31  1  0
  7 32  1  0
  8 33  1  0
 11 34  1  0
 11 35  1  0
 12 36  1  0
 12 37  1  0
 13 38  1  0
 13 39  1  0
 14 40  1  0
 14 41  1  0
 16 42  1  0
 19 43  1  0
 23 44  1  0
 24 45  1  0
 26 46  1  0
 27 47  1  0
M  END
> <Name>
MRF2013_RI20

> <Clean Energy>
71.815292

$$$$
MRF2013_RI42
  SciTegic12132405553D

 59 62  0  0  0  0            999 V2000
   -8.2084    4.1105    0.1486 C   0  0
   -7.6381    5.3209    0.2482 C   0  0
   -6.1798    5.4708    0.1959 C   0  0
   -5.3716    4.4230    0.0509 C   0  0
   -6.0029    3.0749   -0.0580 C   0  0
   -7.3233    2.9337   -0.0109 C   0  0
   -3.8662    4.7638   -0.0120 C   0  0
   -2.7892    3.9490   -0.1546 C   0  0
   -1.4619    4.6144   -0.2593 C   0  0
   -0.2429    3.7537   -0.4678 C   0  0
   -0.5097    2.3331   -0.9863 C   0  0
   -1.5109    1.7098   -0.0577 C   0  0
   -2.8480    2.4405   -0.2786 C   0  0
   -1.4500    5.9051   -0.1386 N   0  0
   -0.4504    6.9170   -0.1445 N   0  0
    0.9857    6.7861   -0.0446 C   0  0
    2.0383    8.0927   -0.0866 S   0  0
    3.4419    7.2261    0.0291 C   0  0
    3.1113    5.9344    0.1092 C   0  0
    1.6684    5.7099    0.0771 N   0  0
    4.0675    4.8221    0.1901 C   0  0
    5.5160    5.0535    0.1689 C   0  0
    6.3590    4.0229    0.2175 C   0  0
    5.8234    2.6244    0.2980 C   0  0
    4.5053    2.4430    0.3233 C   0  0
    3.5962    3.5806    0.2653 C   0  0
    6.6449    1.4569    0.3462 O   0  0
   -5.7580    6.4409    0.2684 H   0  0
   -5.4259    2.2204   -0.1778 H   0  0
   -7.7267    1.9604   -0.0943 H   0  0
   -3.6501    5.7972    0.0468 H   0  0
    0.4693    4.2703   -1.1176 H   0  0
    0.2320    3.6623    0.5199 H   0  0
   -0.9200    2.3398   -2.0056 H   0  0
    0.4402    1.7801   -0.9697 H   0  0
   -1.6583    0.6475   -0.2950 H   0  0
   -1.1543    1.8144    0.9775 H   0  0
   -3.1800    2.2346   -1.3050 H   0  0
   -3.6095    2.0402    0.3912 H   0  0
   -0.7894    7.8497   -0.2011 H   0  0
    4.4248    7.6253    0.0244 H   0  0
    5.8978    6.0401    0.1101 H   0  0
    7.3994    4.2152    0.1975 H   0  0
    4.1120    1.4598    0.3791 H   0  0
    2.5520    3.4159    0.2764 H   0  0
   -9.6599    3.9408    0.1878 N   0  0
    8.0580    1.6967    0.3024 C   0  0
  -10.5543    5.0667    0.3091 C   0  0
  -11.5997    4.7276    0.3138 H   0  0
  -10.3809    5.7540   -0.5317 H   0  0
  -10.3252    5.6099    1.2366 H   0  0
  -10.2540    2.6312    0.0883 C   0  0
  -11.3497    2.7016    0.1276 H   0  0
   -9.8828    2.0052    0.9126 H   0  0
   -9.9361    2.1628   -0.8546 H   0  0
   -8.2243    6.1914    0.3614 H   0  0
    8.5903    0.7356    0.3434 H   0  0
    8.3553    2.3150    1.1615 H   0  0
    8.3152    2.2155   -0.6332 H   0  0
  1  2  2  0
  2  3  1  0
  3  4  2  0
  4  5  1  0
  5  6  2  0
  6  1  1  0
  4  7  1  0
  7  8  2  0
  8  9  1  0
  9 10  1  0
 10 11  1  0
 11 12  1  0
 12 13  1  0
 13  8  1  0
  9 14  2  0
 14 15  1  0
 15 16  1  0
 16 17  1  0
 17 18  1  0
 18 19  2  0
 19 20  1  0
 20 16  2  0
 19 21  1  0
 21 22  1  0
 22 23  2  0
 23 24  1  0
 24 25  2  0
 25 26  1  0
 26 21  2  0
 24 27  1  0
  3 28  1  0
  5 29  1  0
  6 30  1  0
  7 31  1  0
 10 32  1  0
 10 33  1  0
 11 34  1  0
 11 35  1  0
 12 36  1  0
 12 37  1  0
 13 38  1  0
 13 39  1  0
 15 40  1  0
 18 41  1  0
 22 42  1  0
 23 43  1  0
 25 44  1  0
 26 45  1  0
  1 46  1  0
 27 47  1  0
 46 48  1  0
 48 49  1  0
 48 50  1  0
 48 51  1  0
 46 52  1  0
 52 53  1  0
 52 54  1  0
 52 55  1  0
  2 56  1  0
 47 57  1  0
 47 58  1  0
 47 59  1  0
M  END
> <Name>
MRF2013_RI42

> <Clean Energy>
85.132385

$$$$
MRF2013_RI45
  SciTegic12132405553D

 50 53  0  0  0  0            999 V2000
   -8.2022    4.1143    0.1721 C   0  0
   -7.6846    5.3351    0.2600 C   0  0
   -6.2313    5.5321    0.2108 C   0  0
   -5.3977    4.4994    0.0818 C   0  0
   -6.0099    3.1250   -0.0194 C   0  0
   -7.3296    2.9663    0.0258 C   0  0
   -3.8921    4.8683    0.0262 C   0  0
   -2.8045    4.0631   -0.0736 C   0  0
   -1.4737    4.7267   -0.1828 C   0  0
   -0.2677    3.8550   -0.3727 C   0  0
   -0.5286    2.4199   -0.8373 C   0  0
   -1.5186    1.8326    0.1164 C   0  0
   -2.8545    2.5508   -0.1364 C   0  0
   -1.4384    6.0209   -0.0729 N   0  0
   -0.4017    7.0165   -0.0803 N   0  0
    1.0424    6.8440    0.0022 C   0  0
    2.1496    8.1090   -0.0386 S   0  0
    3.5227    7.1772    0.0471 C   0  0
    3.1344    5.9010    0.1162 C   0  0
    1.6877    5.7447    0.1025 N   0  0
    4.0276    4.7335    0.1664 C   0  0
    5.4891    4.8675    0.1261 C   0  0
    6.2532    3.7748    0.1463 C   0  0
    5.6367    2.4451    0.2111 C   0  0
    4.3110    2.3314    0.2538 C   0  0
    3.4792    3.5226    0.2296 C   0  0
    6.5078    1.2185    0.2237 C   0  0
   -8.3269    6.1715    0.3640 H   0  0
   -5.8370    6.5138    0.2763 H   0  0
   -5.4189    2.2777   -0.1320 H   0  0
   -7.7451    1.9929   -0.0491 H   0  0
   -3.6901    5.9071    0.0532 H   0  0
    0.4376    4.3470   -1.0478 H   0  0
    0.2181    3.8022    0.6126 H   0  0
   -0.9436    2.3863   -1.8537 H   0  0
    0.4250    1.8735   -0.8041 H   0  0
   -1.6630    0.7616   -0.0765 H   0  0
   -1.1599    1.9816    1.1462 H   0  0
   -3.1857    2.3013   -1.1530 H   0  0
   -3.6158    2.1765    0.5494 H   0  0
   -0.7157    7.9589   -0.1264 H   0  0
    4.5231    7.5314    0.0314 H   0  0
    5.9384    5.8258    0.0763 H   0  0
    7.3087    3.8655    0.1136 H   0  0
    3.8551    1.3765    0.2991 H   0  0
    2.4318    3.4240    0.2549 H   0  0
   -9.2537    3.9791    0.2063 H   0  0
    7.4115    1.3264    1.2577 F   0  0
    7.2490    1.2001   -0.9386 F   0  0
    5.7628    0.0613    0.3380 F   0  0
  1  2  2  0
  2  3  1  0
  3  4  2  0
  4  5  1  0
  5  6  2  0
  6  1  1  0
  4  7  1  0
  7  8  2  0
  8  9  1  0
  9 10  1  0
 10 11  1  0
 11 12  1  0
 12 13  1  0
 13  8  1  0
  9 14  2  0
 14 15  1  0
 15 16  1  0
 16 17  1  0
 17 18  1  0
 18 19  2  0
 19 20  1  0
 20 16  2  0
 19 21  1  0
 21 22  1  0
 22 23  2  0
 23 24  1  0
 24 25  2  0
 25 26  1  0
 26 21  2  0
 24 27  1  0
  2 28  1  0
  3 29  1  0
  5 30  1  0
  6 31  1  0
  7 32  1  0
 10 33  1  0
 10 34  1  0
 11 35  1  0
 11 36  1  0
 12 37  1  0
 12 38  1  0
 13 39  1  0
 13 40  1  0
 15 41  1  0
 18 42  1  0
 22 43  1  0
 23 44  1  0
 25 45  1  0
 26 46  1  0
  1 47  1  0
 27 48  1  0
 27 49  1  0
 27 50  1  0
M  END
> <Name>
MRF2013_RI45

> <Clean Energy>
79.886139

$$$$
MRF2013_RI49
  SciTegic12132405553D

 55 58  0  0  0  0            999 V2000
   -8.1794    4.2049    0.1983 C   0  0
   -7.5659    5.3930    0.3030 C   0  0
   -6.1095    5.4960    0.1982 C   0  0
   -5.3420    4.4273   -0.0001 C   0  0
   -6.0158    3.1025   -0.1163 C   0  0
   -7.3389    3.0020   -0.0225 C   0  0
   -3.8357    4.7273   -0.1083 C   0  0
   -2.7823    3.8907   -0.2922 C   0  0
   -1.4488    4.5362   -0.4280 C   0  0
   -0.2363    3.6635   -0.6405 C   0  0
   -0.5316    2.2474   -1.1635 C   0  0
   -1.5429    1.6323   -0.2309 C   0  0
   -2.8727    2.3860   -0.4311 C   0  0
   -1.4306    5.8268   -0.3372 N   0  0
   -0.4348    6.8253   -0.3819 N   0  0
    0.9881    6.6987   -0.2097 C   0  0
    2.0312    8.0091   -0.2717 S   0  0
    3.4285    7.1704   -0.0294 C   0  0
    3.1086    5.8805    0.1056 C   0  0
    1.6667    5.6325    0.0074 N   0  0
    4.0816    4.7999    0.3106 C   0  0
    5.5245    5.0791    0.3909 C   0  0
    6.3860    4.0789    0.5637 C   0  0
    5.8998    2.7034    0.6746 C   0  0
    4.5946    2.4503    0.6036 C   0  0
    3.6452    3.5460    0.4129 C   0  0
   -8.1173    6.2795    0.4587 H   0  0
   -5.6534    6.4501    0.2771 H   0  0
   -5.4680    2.2336   -0.2781 H   0  0
   -7.7779    2.0447   -0.1129 H   0  0
   -3.5943    5.7538   -0.0428 H   0  0
    0.4852    4.1756   -1.2862 H   0  0
    0.2349    3.5571    0.3477 H   0  0
   -0.9465    2.2668   -2.1809 H   0  0
    0.4078    1.6768   -1.1547 H   0  0
   -1.7092    0.5744   -0.4763 H   0  0
   -1.1772    1.7213    0.8024 H   0  0
   -3.2151    2.1969   -1.4575 H   0  0
   -3.6360    1.9915    0.2406 H   0  0
   -0.7673    7.7532   -0.5078 H   0  0
    4.4052    7.5828    0.0000 H   0  0
    5.8832    6.0727    0.3101 H   0  0
    7.4259    4.2794    0.6201 H   0  0
    4.2433    1.4529    0.6830 H   0  0
    2.6072    3.3408    0.3518 H   0  0
   -9.6334    4.0845    0.2912 N   0  0
  -10.4818    5.2374    0.4820 C   0  0
  -11.5380    4.9358    0.5169 H   0  0
  -10.3152    5.9457   -0.3427 H   0  0
  -10.1983    5.7417    1.4167 H   0  0
  -10.2773    2.8006    0.1802 C   0  0
  -11.3673    2.9084    0.2673 H   0  0
   -9.8956    2.1381    0.9702 H   0  0
  -10.0153    2.3499   -0.7881 H   0  0
    6.5874    1.9075    0.8111 H   0  0
  1  2  2  0
  2  3  1  0
  3  4  2  0
  4  5  1  0
  5  6  2  0
  6  1  1  0
  4  7  1  0
  7  8  2  0
  8  9  1  0
  9 10  1  0
 10 11  1  0
 11 12  1  0
 12 13  1  0
 13  8  1  0
  9 14  2  0
 14 15  1  0
 15 16  1  0
 16 17  1  0
 17 18  1  0
 18 19  2  0
 19 20  1  0
 20 16  2  0
 19 21  1  0
 21 22  1  0
 22 23  2  0
 23 24  1  0
 24 25  2  0
 25 26  1  0
 26 21  2  0
  2 27  1  0
  3 28  1  0
  5 29  1  0
  6 30  1  0
  7 31  1  0
 10 32  1  0
 10 33  1  0
 11 34  1  0
 11 35  1  0
 12 36  1  0
 12 37  1  0
 13 38  1  0
 13 39  1  0
 15 40  1  0
 18 41  1  0
 22 42  1  0
 23 43  1  0
 25 44  1  0
 26 45  1  0
  1 46  1  0
 46 47  1  0
 47 48  1  0
 47 49  1  0
 47 50  1  0
 46 51  1  0
 51 52  1  0
 51 53  1  0
 51 54  1  0
 24 55  1  0
M  END
> <Name>
MRF2013_RI49

> <Clean Energy>
82.8229217529297

$$$$
MRF2013_RI51_S
  SciTegic12132405553D

 49 52  0  0  0  0            999 V2000
   -1.0356    7.8332    1.8631 N   0  0
   -2.2104    7.3685    2.0346 C   0  0
   -2.8133    6.4909    1.0332 C   0  0
   -2.1256    6.1787   -0.0596 C   0  0
   -0.7865    6.7274   -0.2269 C   0  0
   -0.2823    7.5221    0.7139 C   0  0
   -2.7275    5.2748   -1.1074 C   0  0  2  0  0  0
   -2.8296    3.8086   -0.5304 C   0  0  2  0  0  0
   -1.4860    3.1805   -0.1659 C   0  0
   -1.4483    1.7126    0.1981 C   0  0
   -2.1576    0.8828   -0.8946 C   0  0
   -3.6096    1.3893   -1.1111 C   0  0
   -3.5133    2.8609   -1.5783 C   0  0
   -0.3929    3.8461   -0.1427 N   0  0
   -0.2734    5.1632   -0.4226 N   0  0
    0.9903    5.7428   -0.4018 C   0  0
    1.3100    7.3532   -0.7112 S   0  0
    2.9454    7.2657   -0.5053 C   0  0
    3.2541    6.0001   -0.1983 C   0  0
    2.0801    5.1159   -0.1424 N   0  0
    4.6187    5.5196    0.0597 C   0  0
    5.7722    6.4321   -0.0042 C   0  0
    6.9983    5.9709    0.2333 C   0  0
    7.2004    4.5591    0.5577 C   0  0
    6.1582    3.7329    0.6159 C   0  0
    4.8090    4.2355    0.3556 C   0  0
   -2.7539    7.6202    2.9096 H   0  0
   -3.7913    6.1060    1.1782 H   0  0
   -0.2174    6.4935   -1.0905 H   0  0
    0.6924    7.9232    0.5977 H   0  0
   -0.4139    1.3734    0.3450 H   0  0
   -2.0255    1.5658    1.1181 H   0  0
   -1.6086    0.9871   -1.8409 H   0  0
   -2.1706   -0.1738   -0.5938 H   0  0
   -4.0897    0.7888   -1.8955 H   0  0
   -4.1890    1.3092   -0.1856 H   0  0
   -2.8944    2.8587   -2.4861 H   0  0
   -4.5084    3.2547   -1.8225 H   0  0
    3.6272    8.0723   -0.6009 H   0  0
    5.6331    7.4558   -0.2386 H   0  0
    7.8294    6.6280    0.1873 H   0  0
    6.3061    2.7095    0.8511 H   0  0
    3.9805    3.5753    0.4024 H   0  0
    8.7922    3.9633    0.8652 Cl  0  0
   -1.9650    5.3592   -2.3131 O   0  0
   -1.9701    6.2898   -2.6461 H   0  0
   -1.0569    5.7266   -0.6321 H   0  0
   -3.7636    5.5879   -1.2925 H   0  0
   -3.4427    3.8646    0.3857 H   0  0
  1  2  2  0
  2  3  1  0
  3  4  2  0
  4  5  1  0
  5  6  2  0
  6  1  1  0
  4  7  1  0
  7  8  1  0
  8  9  1  0
  9 10  1  0
 10 11  1  0
 11 12  1  0
 12 13  1  0
 13  8  1  0
  9 14  2  0
 14 15  1  0
 15 16  1  0
 16 17  1  0
 17 18  1  0
 18 19  2  0
 19 20  1  0
 20 16  2  0
 19 21  1  0
 21 22  1  0
 22 23  2  0
 23 24  1  0
 24 25  2  0
 25 26  1  0
 26 21  2  0
  2 27  1  0
  3 28  1  0
  5 29  1  0
  6 30  1  0
 10 31  1  0
 10 32  1  0
 11 33  1  0
 11 34  1  0
 12 35  1  0
 12 36  1  0
 13 37  1  0
 13 38  1  0
 18 39  1  0
 22 40  1  0
 23 41  1  0
 25 42  1  0
 26 43  1  0
 24 44  1  0
  7 45  1  0
 45 46  1  0
 15 47  1  0
  7 48  1  0
  8 49  1  0
M  END
> <Name>
MRF2013_RI51_S

> <Clean Energy>
29.1645

$$$$
MRF2013_RI51_R
  SciTegic12132405553D

 49 52  0  0  0  0            999 V2000
   -1.3482    7.8278    2.4291 N   0  0
   -2.2521    6.9634    2.6749 C   0  0
   -2.8199    6.1574    1.5954 C   0  0
   -2.3806    6.3306    0.3514 C   0  0
   -1.3556    7.3276    0.1066 C   0  0
   -0.8701    8.0369    1.1221 C   0  0
   -2.9418    5.5263   -0.7988 C   0  0  1  0  0  0
   -2.8204    3.9861   -0.4921 C   0  0  2  0  0  0
   -1.3877    3.4133   -0.3157 C   0  0
   -1.3392    2.0537    0.2489 C   0  0
   -1.9309    1.1585   -0.8531 C   0  0
   -3.3803    1.6204   -1.1508 C   0  0
   -3.4246    3.1109   -1.6084 C   0  0
   -0.2532    3.8969   -0.6916 N   0  0
    0.0370    5.0271   -1.3517 N   0  0
    1.3397    5.5115   -1.3060 C   0  0
    1.8803    6.8774   -2.1002 S   0  0
    3.4430    6.7961   -1.5747 C   0  0
    3.5567    5.7196   -0.7876 C   0  0
    2.2976    4.9751   -0.6414 N   0  0
    4.8023    5.3030   -0.1279 C   0  0
    6.0462    6.0727   -0.2932 C   0  0
    7.1613    5.6722    0.3141 C   0  0
    7.1516    4.4684    1.1450 C   0  0
    6.0273    3.7716    1.2955 C   0  0
    4.7996    4.2083    0.6301 C   0  0
   -2.5950    6.8280    3.6691 H   0  0
   -3.5755    5.4437    1.8067 H   0  0
   -0.9933    7.4866   -0.8776 H   0  0
   -0.1191    8.7642    0.9449 H   0  0
   -0.3077    1.7496    0.4736 H   0  0
   -1.9975    1.9715    1.1254 H   0  0
   -1.3213    1.2508   -1.7630 H   0  0
   -1.9386    0.1119   -0.5187 H   0  0
   -3.8096    0.9860   -1.9382 H   0  0
   -3.9768    1.5173   -0.2336 H   0  0
   -2.8476    3.2462   -2.5335 H   0  0
   -4.4697    3.3980   -1.7804 H   0  0
    4.2172    7.4774   -1.8216 H   0  0
    6.0604    6.9455   -0.8936 H   0  0
    8.0575    6.2264    0.1952 H   0  0
    6.0217    2.8989    1.8980 H   0  0
    3.9056    3.6511    0.7509 H   0  0
    8.5997    3.9503    1.9312 Cl  0  0
   -4.3380    5.8719   -0.9104 O   0  0
   -4.7601    5.4111   -1.6698 H   0  0
   -0.6105    5.4677   -1.9248 H   0  0
   -2.4255    5.7845   -1.7237 H   0  0
   -3.3959    3.7544    0.4144 H   0  0
  1  2  2  0
  2  3  1  0
  3  4  2  0
  4  5  1  0
  5  6  2  0
  6  1  1  0
  4  7  1  0
  7  8  1  0
  8  9  1  0
  9 10  1  0
 10 11  1  0
 11 12  1  0
 12 13  1  0
 13  8  1  0
  9 14  2  0
 14 15  1  0
 15 16  1  0
 16 17  1  0
 17 18  1  0
 18 19  2  0
 19 20  1  0
 20 16  2  0
 19 21  1  0
 21 22  1  0
 22 23  2  0
 23 24  1  0
 24 25  2  0
 25 26  1  0
 26 21  2  0
  2 27  1  0
  3 28  1  0
  5 29  1  0
  6 30  1  0
 10 31  1  0
 10 32  1  0
 11 33  1  0
 11 34  1  0
 12 35  1  0
 12 36  1  0
 13 37  1  0
 13 38  1  0
 18 39  1  0
 22 40  1  0
 23 41  1  0
 25 42  1  0
 26 43  1  0
 24 44  1  0
  7 45  1  0
 45 46  1  0
 15 47  1  0
  7 48  1  0
  8 49  1  0
M  END
> <Name>
MRF2013_RI51_R

> <Clean Energy>
61.0612

$$$$
MRF2013_RI52_S
  SciTegic12132405553D

 49 52  0  0  0  0            999 V2000
   -7.2394    6.0320   -0.9231 N   0  0
   -6.6799    5.9371    0.2189 C   0  0
   -5.2677    5.5730    0.3239 C   0  0
   -4.5735    5.3387   -0.7838 C   0  0
   -5.2383    5.4578   -2.0705 C   0  0
   -6.5253    5.7923   -2.1141 C   0  0
   -3.1177    4.9766   -0.7187 C   0  0  2  0  0  0
   -2.9004    3.5621   -0.1289 C   0  0  2  0  0  0
   -1.4094    3.0964    0.0114 C   0  0
   -1.2352    1.7669    0.6579 C   0  0
   -1.9461    0.7251   -0.2179 C   0  0
   -3.4384    1.0922   -0.3461 C   0  0
   -3.6005    2.4842   -0.9992 C   0  0
   -0.3128    3.6915   -0.3421 N   0  0
   -0.0965    4.8782   -0.9686 N   0  0
    1.1696    5.4555   -0.9386 C   0  0
    1.5317    6.9412   -1.6083 S   0  0
    3.1232    6.9616   -1.1940 C   0  0
    3.3954    5.8245   -0.5434 C   0  0
    2.2172    4.9440   -0.3972 N   0  0
    4.7300    5.4752   -0.0301 C   0  0
    5.8640    6.4056   -0.1746 C   0  0
    7.0651    6.0694    0.2885 C   0  0
    7.2630    4.7760    0.9401 C   0  0
    6.2406    3.9335    1.0733 C   0  0
    4.9154    4.2993    0.5669 C   0  0
   -7.2418    6.1258    1.0979 H   0  0
   -4.8022    5.4995    1.2740 H   0  0
   -4.7007    5.2777   -2.9667 H   0  0
   -7.0156    5.8798   -3.0504 H   0  0
   -0.1700    1.5208    0.7663 H   0  0
   -1.7475    1.7608    1.6306 H   0  0
   -1.4882    0.7126   -1.2167 H   0  0
   -1.8502   -0.2678    0.2433 H   0  0
   -3.9435    0.3406   -0.9685 H   0  0
   -3.8953    1.1066    0.6536 H   0  0
   -3.1484    2.4754   -2.0001 H   0  0
   -4.6707    2.7103   -1.0833 H   0  0
   -0.7800    5.3250   -1.4722 H   0  0
    3.8106    7.7376   -1.4152 H   0  0
    5.7291    7.3451   -0.6457 H   0  0
    7.8798    6.7407    0.1843 H   0  0
    6.3865    2.9952    1.5450 H   0  0
    4.1039    3.6254    0.6712 H   0  0
    8.2218    4.5088    1.3063 H   0  0
   -2.4630    5.8802    0.1703 O   0  0
   -2.5602    6.8027   -0.1699 H   0  0
   -2.6821    5.0172   -1.7243 H   0  0
   -3.3627    3.5042    0.8663 H   0  0
  1  2  2  0
  2  3  1  0
  3  4  2  0
  4  5  1  0
  5  6  2  0
  6  1  1  0
  4  7  1  0
  7  8  1  0
  8  9  1  0
  9 10  1  0
 10 11  1  0
 11 12  1  0
 12 13  1  0
 13  8  1  0
  9 14  2  0
 14 15  1  0
 15 16  1  0
 16 17  1  0
 17 18  1  0
 18 19  2  0
 19 20  1  0
 20 16  2  0
 19 21  1  0
 21 22  1  0
 22 23  2  0
 23 24  1  0
 24 25  2  0
 25 26  1  0
 26 21  2  0
  2 27  1  0
  3 28  1  0
  5 29  1  0
  6 30  1  0
 10 31  1  0
 10 32  1  0
 11 33  1  0
 11 34  1  0
 12 35  1  0
 12 36  1  0
 13 37  1  0
 13 38  1  0
 15 39  1  0
 18 40  1  0
 22 41  1  0
 23 42  1  0
 25 43  1  0
 26 44  1  0
 24 45  1  0
  7 46  1  0
 46 47  1  0
  7 48  1  0
  8 49  1  0
M  END
> <Name>
MRF2013_RI52_S

> <Clean Energy>
61.189

$$$$
MRF2013_RI52_R
  SciTegic12132405553D

 49 52  0  0  0  0            999 V2000
   -1.1371    7.6187    1.9949 N   0  0
   -2.2825    7.0852    2.1642 C   0  0
   -2.8568    6.2223    1.1337 C   0  0
   -2.1735    5.9986    0.0146 C   0  0
   -0.8721    6.6228   -0.1476 C   0  0
   -0.3911    7.3992    0.8204 C   0  0
   -2.7219    5.1126   -1.0809 C   0  0  1  0  0  0
   -2.8754    3.6440   -0.5747 C   0  0  2  0  0  0
   -1.5521    3.0339   -0.1657 C   0  0
   -1.5102    1.5571    0.1381 C   0  0
   -2.1192    0.7699   -1.0369 C   0  0
   -3.5595    1.2650   -1.3187 C   0  0
   -3.4776    2.7641   -1.7083 C   0  0
   -0.4818    3.7235   -0.0482 N   0  0
   -0.3978    5.0552   -0.2656 N   0  0
    0.8509    5.6659   -0.2260 C   0  0
    1.1282    7.2949   -0.4727 S   0  0
    2.7675    7.2394   -0.2861 C   0  0
    3.1099    5.9705   -0.0330 C   0  0
    1.9582    5.0562   -0.0018 N   0  0
    4.4887    5.5136    0.1910 C   0  0
    5.6198    6.4547    0.1459 C   0  0
    6.8594    6.0145    0.3507 C   0  0
    7.0987    4.5969    0.6211 C   0  0
    6.0766    3.7448    0.6623 C   0  0
    4.7127    4.2244    0.4372 C   0  0
   -2.8222    7.2683    3.0584 H   0  0
   -3.8100    5.7801    1.2782 H   0  0
   -0.3089    6.4570   -1.0308 H   0  0
    0.5596    7.8549    0.7068 H   0  0
   -0.4822    1.2296    0.3449 H   0  0
   -2.1537    1.3585    1.0064 H   0  0
   -1.5100    0.9293   -1.9376 H   0  0
   -2.1325   -0.3000   -0.7876 H   0  0
   -3.9810    0.6950   -2.1576 H   0  0
   -4.1904    1.1283   -0.4299 H   0  0
   -2.8152    2.8330   -2.5821 H   0  0
   -4.4709    3.1446   -1.9796 H   0  0
   -1.1995    5.6068   -0.4531 H   0  0
    3.4287    8.0655   -0.3564 H   0  0
    5.4538    7.4827   -0.0496 H   0  0
    7.6742    6.6924    0.3178 H   0  0
    6.2512    2.7174    0.8584 H   0  0
    3.9004    3.5435    0.4701 H   0  0
    8.0867    4.2478    0.7842 H   0  0
   -4.0443    5.5398   -1.4382 O   0  0
   -4.6475    5.4745   -0.6585 H   0  0
   -2.0591    5.1504   -1.9543 H   0  0
   -3.5512    3.6303    0.2971 H   0  0
  1  2  2  0
  2  3  1  0
  3  4  2  0
  4  5  1  0
  5  6  2  0
  6  1  1  0
  4  7  1  0
  7  8  1  0
  8  9  1  0
  9 10  1  0
 10 11  1  0
 11 12  1  0
 12 13  1  0
 13  8  1  0
  9 14  2  0
 14 15  1  0
 15 16  1  0
 16 17  1  0
 17 18  1  0
 18 19  2  0
 19 20  1  0
 20 16  2  0
 19 21  1  0
 21 22  1  0
 22 23  2  0
 23 24  1  0
 24 25  2  0
 25 26  1  0
 26 21  2  0
  2 27  1  0
  3 28  1  0
  5 29  1  0
  6 30  1  0
 10 31  1  0
 10 32  1  0
 11 33  1  0
 11 34  1  0
 12 35  1  0
 12 36  1  0
 13 37  1  0
 13 38  1  0
 15 39  1  0
 18 40  1  0
 22 41  1  0
 23 42  1  0
 25 43  1  0
 26 44  1  0
 24 45  1  0
  7 46  1  0
 46 47  1  0
  7 48  1  0
  8 49  1  0
M  END
> <Name>
MRF2013_RI52_R

> <Clean Energy>
27.7542

$$$$
MRF2013_RI46_S
  SciTegic12132405553D

 52 55  0  0  0  0            999 V2000
   -8.2802    5.1698   -1.3774 C   0  0
   -7.4849    4.8791   -0.3693 C   0  0
   -6.0538    4.9183   -0.5590 C   0  0
   -5.4409    5.2385   -1.7273 C   0  0
   -6.3528    5.5465   -2.8578 C   0  0
   -7.6894    5.5100   -2.6820 C   0  0
   -3.7316    5.1859   -1.8829 C   0  0  2  0  0  0
   -3.1064    4.1189   -0.7557 C   0  0  2  0  0  0
   -0.7939    3.5699    0.0388 C   0  0
   -0.3419    2.4801    1.2873 C   0  0
   -1.1735    0.9146    0.8816 C   0  0
   -4.1006    1.5741   -0.5932 C   0  0
   -4.1390    2.7824   -1.5782 C   0  0
    0.3965    3.4106   -0.6294 N   0  0
    1.0529    3.6269   -1.9926 N   0  0
    2.3186    4.3410   -2.1057 C   0  0
    2.4565    5.7399   -3.0387 S   0  0
    3.9064    6.2440   -2.4529 C   0  0
    4.3310    5.3167   -1.5916 C   0  0
    3.3561    4.2155   -1.3680 N   0  0
    5.6104    5.3637   -0.9115 C   0  0
    6.4107    6.5968   -0.8284 C   0  0
    7.5923    6.5709   -0.2137 C   0  0
    8.0923    5.3154    0.3557 C   0  0
    7.3576    4.2089    0.2791 C   0  0
    6.0620    4.2402   -0.3716 C   0  0
   -5.4850    4.6457    0.2347 H   0  0
   -5.9590    5.7761   -3.8065 H   0  0
   -8.3340    5.7159   -3.4942 H   0  0
    0.7407    2.3266    1.3998 H   0  0
   -0.7346    2.8849    2.2087 H   0  0
   -0.4788    0.4993    0.1739 H   0  0
   -1.1848    0.2210    1.7260 H   0  0
   -4.5978    0.7340   -1.0418 H   0  0
   -4.8196    1.9781    0.0937 H   0  0
   -3.6620    2.5401   -2.5343 H   0  0
   -5.1676    2.9511   -1.7883 H   0  0
    4.4301    7.1228   -2.7456 H   0  0
    6.0464    7.5063   -1.2387 H   0  0
    8.1730    7.4560   -0.1383 H   0  0
    7.7216    3.3007    0.6823 H   0  0
    5.4830    3.3563   -0.4430 H   0  0
    9.6393    5.2648    1.1186 Cl  0  0
   -3.2763    6.4896   -1.6945 O   0  0
   -3.6874    7.0682   -2.3852 H   0  0
   -8.0154    4.5068    0.8976 N   0  3
   -7.3044    4.0940    1.7376 O   0  0
   -9.3148    4.5793    1.1324 O   0  5
   -9.3363    5.1354   -1.2474 H   0  0
    0.5576    3.5561   -2.8096 H   0  0
   -3.4388    4.9048   -2.9054 H   0  0
   -3.5546    4.3841    0.0779 H   0  0
  1  2  2  0
  2  3  1  0
  3  4  2  0
  4  5  1  0
  5  6  2  0
  6  1  1  0
  4  7  1  0
  7  8  1  0
  8  9  1  0
  9 10  1  0
 10 11  1  0
 11 12  1  0
 12 13  1  0
 13  8  1  0
  9 14  2  0
 14 15  1  0
 15 16  1  0
 16 17  1  0
 17 18  1  0
 18 19  2  0
 19 20  1  0
 20 16  2  0
 19 21  1  0
 21 22  1  0
 22 23  2  0
 23 24  1  0
 24 25  2  0
 25 26  1  0
 26 21  2  0
  3 27  1  0
  5 28  1  0
  6 29  1  0
 10 30  1  0
 10 31  1  0
 11 32  1  0
 11 33  1  0
 12 34  1  0
 12 35  1  0
 13 36  1  0
 13 37  1  0
 18 38  1  0
 22 39  1  0
 23 40  1  0
 25 41  1  0
 26 42  1  0
 24 43  1  0
  7 44  1  0
 44 45  1  0
  2 46  1  0
 46 47  2  0
 46 48  1  0
  1 49  1  0
 15 50  1  0
  7 51  1  0
  8 52  1  0
M  CHG  2  46   1  48  -1
M  END
> <Name>
MRF2013_RI46_S

> <Clean Energy>
834.095

$$$$
MRF2013_RI46_R
  SciTegic12132405553D

 52 55  0  0  0  0            999 V2000
   -5.2667    7.3873    0.5844 C   0  0
   -5.8925    6.2270    0.4092 C   0  0
   -5.4148    5.0211    1.0835 C   0  0
   -4.3345    5.0651    1.8710 C   0  0
   -3.6606    6.3669    2.0689 C   0  0
   -4.1040    7.4598    1.4547 C   0  0
   -3.7853    3.8292    2.6384 C   0  0  1  0  0  0
   -3.4485    2.4325    1.8794 C   0  0  2  0  0  0
   -2.3010    2.3695    0.8027 C   0  0
   -1.9256    1.0015    0.3741 C   0  0
   -3.1559    0.4005   -0.3152 C   0  0
   -4.3228    0.3674    0.6878 C   0  0
   -4.6765    1.7907    1.1903 C   0  0
   -1.6352    3.3056    0.2289 N   0  0
   -1.7706    4.6023    0.3152 N   0  0
   -0.6358    5.3993    0.4521 C   0  0
   -0.6306    7.0693    0.4287 S   0  0
    0.9936    7.2570    0.6497 C   0  0
    1.5395    6.0386    0.7427 C   0  0
    0.5552    4.9535    0.6228 N   0  0
    2.9726    5.7860    0.9457 C   0  0
    3.9327    6.8957    1.0630 C   0  0
    5.2259    6.6389    1.2478 C   0  0
    5.6935    5.2555    1.3341 C   0  0
    4.8262    4.2512    1.2280 C   0  0
    3.4043    4.5289    1.0250 C   0  0
   -5.9349    4.1227    0.9444 H   0  0
   -2.8126    6.4314    2.7003 H   0  0
   -3.6089    8.3860    1.6008 H   0  0
   -1.0716    1.0288   -0.3166 H   0  0
   -1.7152    0.3753    1.2526 H   0  0
   -3.4311    1.0183   -1.1816 H   0  0
   -2.9288   -0.6217   -0.6480 H   0  0
   -5.2052   -0.0722    0.2030 H   0  0
   -4.0325   -0.2519    1.5480 H   0  0
   -5.4985    1.7130    1.9145 H   0  0
   -4.9895    2.4139    0.3448 H   0  0
    1.5094    8.1817    0.7080 H   0  0
    3.6008    7.8999    1.0015 H   0  0
    5.9177    7.4380    1.3325 H   0  0
    5.1665    3.2487    1.2908 H   0  0
    2.7154    3.7271    0.9412 H   0  0
    7.3717    4.9250    1.5740 Cl  0  0
   -7.0122    6.1549   -0.4200 N   0  3
   -7.5626    5.1275   -0.5722 O   0  0
   -7.4558    7.2405   -1.0355 O   0  5
   -5.6162    8.2600    0.0946 H   0  0
   -2.6245    5.0126    0.1155 H   0  0
   -2.6122    4.2261    3.3576 O   0  0
   -1.8855    4.4400    2.7283 H   0  0
   -4.5751    3.5639    3.3540 H   0  0
   -3.1704    1.7130    2.6618 H   0  0
  1  2  2  0
  2  3  1  0
  3  4  2  0
  4  5  1  0
  5  6  2  0
  6  1  1  0
  4  7  1  0
  7  8  1  0
  8  9  1  0
  9 10  1  0
 10 11  1  0
 11 12  1  0
 12 13  1  0
 13  8  1  0
  9 14  2  0
 14 15  1  0
 15 16  1  0
 16 17  1  0
 17 18  1  0
 18 19  2  0
 19 20  1  0
 20 16  2  0
 19 21  1  0
 21 22  1  0
 22 23  2  0
 23 24  1  0
 24 25  2  0
 25 26  1  0
 26 21  2  0
  3 27  1  0
  5 28  1  0
  6 29  1  0
 10 30  1  0
 10 31  1  0
 11 32  1  0
 11 33  1  0
 12 34  1  0
 12 35  1  0
 13 36  1  0
 13 37  1  0
 18 38  1  0
 22 39  1  0
 23 40  1  0
 25 41  1  0
 26 42  1  0
 24 43  1  0
  2 44  1  0
 44 45  2  0
 44 46  1  0
  1 47  1  0
 15 48  1  0
  7 49  1  0
 49 50  1  0
  7 51  1  0
  8 52  1  0
M  CHG  2  44   1  46  -1
M  END
> <Name>
MRF2013_RI46_R

> <Clean Energy>
71.6916

$$$$
MRF2013_RI46A_S
  SciTegic12132405553D

 56 59  0  0  0  0            999 V2000
   -6.2518    6.2268   -0.8856 C   0  0
   -5.9616    6.4852    0.3865 C   0  0
   -4.8774    5.7685    1.0557 C   0  0
   -4.1671    4.8453    0.4077 C   0  0
   -4.5004    4.5667   -1.0196 C   0  0
   -5.4877    5.2265   -1.6184 C   0  0
   -3.0327    4.1350    1.2072 C   0  0  2  0  0  0
   -2.4726    2.7503    0.6451 C   0  0  2  0  0  0
   -1.7405    2.7808   -0.7381 C   0  0
   -1.4255    1.4537   -1.3592 C   0  0
   -2.6279    0.5082   -1.3388 C   0  0
   -3.1381    0.3317    0.0988 C   0  0
   -3.6217    1.6949    0.5991 C   0  0
   -1.1862    3.7977   -1.2978 N   0  0
   -1.1933    5.0671   -0.8889 N   0  0
    0.0083    5.6677   -0.5305 C   0  0
    0.1833    7.2600   -0.0598 S   0  0
    1.8117    7.1990    0.2084 C   0  0
    2.2267    5.9555   -0.0622 C   0  0
    1.1418    5.0671   -0.4988 N   0  0
    3.6176    5.4983    0.0644 C   0  0
    4.6777    6.4084    0.5139 C   0  0
    5.9309    5.9749    0.6282 C   0  0
    6.2608    4.5520    0.2957 C   0  0
    5.2830    3.7449   -0.1117 C   0  0
    3.9109    4.2349   -0.2315 C   0  0
   -4.6558    5.9851    2.0690 H   0  0
   -3.9609    3.8476   -1.5658 H   0  0
   -5.7196    5.0230   -2.6327 H   0  0
   -1.0416    1.5923   -2.3792 H   0  0
   -0.6499    0.9789   -0.7422 H   0  0
   -3.4394    0.9259   -1.9520 H   0  0
   -2.3217   -0.4641   -1.7484 H   0  0
   -3.9847   -0.3684    0.0971 H   0  0
   -2.3382   -0.0555    0.7452 H   0  0
   -4.4031    2.0369   -0.0871 H   0  0
   -4.0443    1.5914    1.6066 H   0  0
    2.4169    8.0041    0.5402 H   0  0
    4.4506    7.4155    0.7509 H   0  0
    6.6748    6.6527    0.9552 H   0  0
    5.5021    2.7352   -0.3502 H   0  0
    3.1436    3.5783   -0.5549 H   0  0
    7.5746    3.9974    0.3895 O   0  0
   -6.6939    7.4424    1.0901 N   0  3
   -6.4359    7.6669    2.2146 O   0  0
   -7.6804    8.0956    0.4949 O   0  5
   -7.0390    6.7479   -1.3679 H   0  0
   -2.0201    5.5982   -0.8978 H   0  0
    8.5944    4.9044    0.8356 C   0  0
   -3.5293    3.9797    2.5512 O   0  0
   -4.3234    3.3957    2.5687 H   0  0
   -2.1902    4.8345    1.2774 H   0  0
   -1.7231    2.3766    1.3553 H   0  0
    9.5587    4.3779    0.8714 H   0  0
    8.3447    5.2757    1.8408 H   0  0
    8.6676    5.7511    0.1370 H   0  0
  1  2  2  0
  2  3  1  0
  3  4  2  0
  4  5  1  0
  5  6  2  0
  6  1  1  0
  4  7  1  0
  7  8  1  0
  8  9  1  0
  9 10  1  0
 10 11  1  0
 11 12  1  0
 12 13  1  0
 13  8  1  0
  9 14  2  0
 14 15  1  0
 15 16  1  0
 16 17  1  0
 17 18  1  0
 18 19  2  0
 19 20  1  0
 20 16  2  0
 19 21  1  0
 21 22  1  0
 22 23  2  0
 23 24  1  0
 24 25  2  0
 25 26  1  0
 26 21  2  0
  3 27  1  0
  5 28  1  0
  6 29  1  0
 10 30  1  0
 10 31  1  0
 11 32  1  0
 11 33  1  0
 12 34  1  0
 12 35  1  0
 13 36  1  0
 13 37  1  0
 18 38  1  0
 22 39  1  0
 23 40  1  0
 25 41  1  0
 26 42  1  0
 24 43  1  0
  2 44  1  0
 44 45  2  0
 44 46  1  0
  1 47  1  0
 15 48  1  0
 43 49  1  0
  7 50  1  0
 50 51  1  0
  7 52  1  0
  8 53  1  0
 49 54  1  0
 49 55  1  0
 49 56  1  0
M  CHG  2  44   1  46  -1
M  END
> <Name>
MRF2013_RI46A_S

> <Clean Energy>
69.4257

$$$$
MRF2013_RI46A_R
  SciTegic12132405553D

 56 59  0  0  0  0            999 V2000
   -7.7642    5.5875   -0.2544 C   0  0
   -7.0637    5.5671    0.8785 C   0  0
   -5.6196    5.3501    0.8417 C   0  0
   -5.0000    5.1712   -0.3232 C   0  0
   -5.7709    5.1993   -1.5729 C   0  0
   -7.0868    5.3950   -1.5373 C   0  0
   -3.5079    4.9575   -0.3482 C   0  0  1  0  0  0
   -3.1393    3.5433    0.2023 C   0  0  2  0  0  0
   -1.6095    3.2069    0.3142 C   0  0
   -1.2880    1.8037    0.7227 C   0  0
   -1.9708    0.8063   -0.2116 C   0  0
   -3.4872    1.0376   -0.1983 C   0  0
   -3.7870    2.4536   -0.7088 C   0  0
   -0.5786    3.9789    0.2020 N   0  0
   -0.4440    5.3022   -0.0615 N   0  0
    0.8400    5.8227   -0.1437 C   0  0
    1.2135    7.4284   -0.4153 S   0  0
    2.8554    7.2518   -0.3591 C   0  0
    3.1217    5.9596   -0.1332 C   0  0
    1.9139    5.1338   -0.0097 N   0  0
    4.4731    5.3974   -0.0116 C   0  0
    5.6638    6.2478   -0.1251 C   0  0
    6.8797    5.7181   -0.0087 C   0  0
    7.0319    4.2481    0.2378 C   0  0
    5.9368    3.4970    0.3361 C   0  0
    4.6091    4.0927    0.2074 C   0  0
   -5.0631    5.3363    1.7444 H   0  0
   -5.2810    5.0595   -2.5022 H   0  0
   -7.6444    5.4124   -2.4389 H   0  0
   -0.2001    1.6488    0.7357 H   0  0
   -1.7102    1.6277    1.7220 H   0  0
   -1.5952    0.9433   -1.2356 H   0  0
   -1.7494   -0.2151    0.1273 H   0  0
   -3.9683    0.3070   -0.8629 H   0  0
   -3.8751    0.9184    0.8229 H   0  0
   -3.3806    2.5492   -1.7251 H   0  0
   -4.8731    2.5956   -0.7370 H   0  0
    3.5682    8.0278   -0.4799 H   0  0
    5.5619    7.2878   -0.2991 H   0  0
    7.7211    6.3542   -0.0940 H   0  0
    6.0297    2.4553    0.5104 H   0  0
    3.7473    3.4803    0.2895 H   0  0
    8.2930    3.5908    0.3766 O   0  0
   -3.0189    5.1021   -1.6905 O   0  0
   -2.0448    4.9726   -1.7181 H   0  0
   -7.7045    5.7547    2.1036 N   0  3
   -7.0800    5.7390    3.0993 O   0  0
   -9.0130    5.9546    2.1468 O   0  5
   -8.8122    5.7451   -0.2286 H   0  0
   -1.1912    5.9004   -0.1465 H   0  0
    9.4445    4.4405    0.2658 C   0  0
   -3.0487    5.6817    0.3342 H   0  0
   -3.5615    3.4197    1.2088 H   0  0
   10.3547    3.8361    0.3870 H   0  0
    9.4119    5.2110    1.0503 H   0  0
    9.4555    4.9211   -0.7236 H   0  0
  1  2  2  0
  2  3  1  0
  3  4  2  0
  4  5  1  0
  5  6  2  0
  6  1  1  0
  4  7  1  0
  7  8  1  0
  8  9  1  0
  9 10  1  0
 10 11  1  0
 11 12  1  0
 12 13  1  0
 13  8  1  0
  9 14  2  0
 14 15  1  0
 15 16  1  0
 16 17  1  0
 17 18  1  0
 18 19  2  0
 19 20  1  0
 20 16  2  0
 19 21  1  0
 21 22  1  0
 22 23  2  0
 23 24  1  0
 24 25  2  0
 25 26  1  0
 26 21  2  0
  3 27  1  0
  5 28  1  0
  6 29  1  0
 10 30  1  0
 10 31  1  0
 11 32  1  0
 11 33  1  0
 12 34  1  0
 12 35  1  0
 13 36  1  0
 13 37  1  0
 18 38  1  0
 22 39  1  0
 23 40  1  0
 25 41  1  0
 26 42  1  0
 24 43  1  0
  7 44  1  0
 44 45  1  0
  2 46  1  0
 46 47  2  0
 46 48  1  0
  1 49  1  0
 15 50  1  0
 43 51  1  0
  7 52  1  0
  8 53  1  0
 51 54  1  0
 51 55  1  0
 51 56  1  0
M  CHG  2  46   1  48  -1
M  END
> <Name>
MRF2013_RI46A_R

> <Clean Energy>
61.8378

$$$$
MRF2013_RI47_S
  SciTegic12132405553D

 52 55  0  0  0  0            999 V2000
   -6.3645    6.0796   -0.9133 C   0  0
   -6.1001    6.3586    0.3602 C   0  0
   -4.9587    5.7367    1.0302 C   0  0
   -4.1694    4.8797    0.3815 C   0  0
   -4.4758    4.5786   -1.0478 C   0  0
   -5.5153    5.1521   -1.6465 C   0  0
   -2.9791    4.2622    1.1812 C   0  0  2  0  0  0
   -2.3628    2.8872    0.6508 C   0  0  2  0  0  0
   -1.6696    2.9060   -0.7505 C   0  0
   -1.3263    1.5768   -1.3517 C   0  0
   -2.4848    0.5836   -1.2633 C   0  0
   -2.9378    0.4260    0.1955 C   0  0
   -3.4639    1.7821    0.6703 C   0  0
   -1.1601    3.9270   -1.3421 N   0  0
   -1.1860    5.1980   -0.9441 N   0  0
    0.0087    5.7981   -0.5624 C   0  0
    0.1875    7.3878   -0.0826 S   0  0
    1.8132    7.3105    0.2127 C   0  0
    2.2202    6.0641   -0.0564 C   0  0
    1.1366    5.1895   -0.5131 N   0  0
    3.6018    5.5883    0.0876 C   0  0
    4.6724    6.4814    0.5571 C   0  0
    5.9153    6.0198    0.6811 C   0  0
    6.2168    4.6264    0.3504 C   0  0
    5.2483    3.8182   -0.0749 C   0  0
    3.8821    4.3216   -0.2116 C   0  0
   -4.7601    5.9687    2.0447 H   0  0
   -3.8769    3.9119   -1.5952 H   0  0
   -5.7269    4.9322   -2.6619 H   0  0
   -0.9849    1.7046   -2.3881 H   0  0
   -0.5089    1.1508   -0.7535 H   0  0
   -3.3345    0.9499   -1.8573 H   0  0
   -2.1514   -0.3857   -1.6585 H   0  0
   -3.7528   -0.3088    0.2418 H   0  0
   -2.1011    0.0924    0.8253 H   0  0
   -4.2788    2.0691   -0.0030 H   0  0
   -3.8529    1.6928    1.6925 H   0  0
    2.4210    8.1085    0.5573 H   0  0
    4.4605    7.4910    0.7985 H   0  0
    6.6875    6.6625    1.0201 H   0  0
    5.4673    2.8085   -0.3143 H   0  0
    3.1119    3.6752   -0.5494 H   0  0
   -6.9150    7.2460    1.0643 N   0  3
   -6.6805    7.4890    2.1902 O   0  0
   -7.9542    7.8113    0.4684 O   0  5
   -7.1933    6.5314   -1.3957 H   0  0
   -2.0195    5.7243   -0.9669 H   0  0
   -3.4326    4.1299    2.5437 O   0  0
   -4.1936    3.5060    2.6045 H   0  0
    7.2071    4.2601    0.4496 H   0  0
   -2.1717    5.0040    1.2012 H   0  0
   -1.5773    2.5753    1.3519 H   0  0
  1  2  2  0
  2  3  1  0
  3  4  2  0
  4  5  1  0
  5  6  2  0
  6  1  1  0
  4  7  1  0
  7  8  1  0
  8  9  1  0
  9 10  1  0
 10 11  1  0
 11 12  1  0
 12 13  1  0
 13  8  1  0
  9 14  2  0
 14 15  1  0
 15 16  1  0
 16 17  1  0
 17 18  1  0
 18 19  2  0
 19 20  1  0
 20 16  2  0
 19 21  1  0
 21 22  1  0
 22 23  2  0
 23 24  1  0
 24 25  2  0
 25 26  1  0
 26 21  2  0
  3 27  1  0
  5 28  1  0
  6 29  1  0
 10 30  1  0
 10 31  1  0
 11 32  1  0
 11 33  1  0
 12 34  1  0
 12 35  1  0
 13 36  1  0
 13 37  1  0
 18 38  1  0
 22 39  1  0
 23 40  1  0
 25 41  1  0
 26 42  1  0
  2 43  1  0
 43 44  2  0
 43 45  1  0
  1 46  1  0
 15 47  1  0
  7 48  1  0
 48 49  1  0
 24 50  1  0
  7 51  1  0
  8 52  1  0
M  CHG  2  43   1  45  -1
M  END
> <Name>
MRF2013_RI47_S

> <Clean Energy>
68.2046

$$$$
MRF2013_RI47_R
  SciTegic12132405553D

 52 55  0  0  0  0            999 V2000
   -7.7870    5.4876   -0.3183 C   0  0
   -7.1703    5.5472    0.8610 C   0  0
   -5.7219    5.3590    0.9415 C   0  0
   -5.0148    5.1327   -0.1641 C   0  0
   -5.6963    5.0773   -1.4656 C   0  0
   -7.0151    5.2401   -1.5353 C   0  0
   -3.5143    4.9692   -0.0693 C   0  0  1  0  0  0
   -3.1072    3.4904    0.2519 C   0  0  2  0  0  0
   -1.5770    3.1997    0.3762 C   0  0
   -1.2368    1.8301    0.8302 C   0  0
   -1.7200    0.8760   -0.2658 C   0  0
   -3.2420    1.0477   -0.4465 C   0  0
   -3.5917    2.5040   -0.8483 C   0  0
   -0.5592    3.9435    0.0928 N   0  0
   -0.4475    5.2051   -0.3875 N   0  0
    0.8214    5.7582   -0.4599 C   0  0
    1.1747    7.3114   -0.9645 S   0  0
    2.8129    7.2026   -0.7684 C   0  0
    3.0911    5.9726   -0.3196 C   0  0
    1.8983    5.1391   -0.1415 N   0  0
    4.4413    5.4757   -0.0323 C   0  0
    5.6240    6.3330   -0.2042 C   0  0
    6.8369    5.8506    0.0589 C   0  0
    6.9935    4.4696    0.5179 C   0  0
    5.9228    3.6943    0.6743 C   0  0
    4.5899    4.2209    0.3871 C   0  0
   -5.2344    5.4106    1.8814 H   0  0
   -5.1362    4.8997   -2.3481 H   0  0
   -7.5059    5.1941   -2.4740 H   0  0
   -0.1532    1.7238    0.9800 H   0  0
   -1.8001    1.5818    1.7405 H   0  0
   -1.2085    1.1141   -1.2097 H   0  0
   -1.4975   -0.1606    0.0225 H   0  0
   -3.5922    0.3623   -1.2306 H   0  0
   -3.7441    0.8073    0.5006 H   0  0
   -3.1003    2.7524   -1.7991 H   0  0
   -4.6775    2.5805   -0.9666 H   0  0
    3.5156    7.9709   -0.9704 H   0  0
    5.5169    7.3333   -0.5363 H   0  0
    7.6903    6.4675   -0.0645 H   0  0
    6.0368    2.6935    1.0060 H   0  0
    3.7385    3.6004    0.5100 H   0  0
   -7.9022    5.7977    2.0225 N   0  3
   -7.3516    5.8622    3.0590 O   0  0
   -9.2126    5.9799    1.9572 O   0  5
   -8.8366    5.6252   -0.3769 H   0  0
   -1.2000    5.7234   -0.6908 H   0  0
    7.9600    4.0862    0.7256 H   0  0
   -2.9551    5.3043   -1.3513 O   0  0
   -3.1829    6.2246   -1.6009 H   0  0
   -3.1518    5.6314    0.7255 H   0  0
   -3.5921    3.1722    1.1850 H   0  0
  1  2  2  0
  2  3  1  0
  3  4  2  0
  4  5  1  0
  5  6  2  0
  6  1  1  0
  4  7  1  0
  7  8  1  0
  8  9  1  0
  9 10  1  0
 10 11  1  0
 11 12  1  0
 12 13  1  0
 13  8  1  0
  9 14  2  0
 14 15  1  0
 15 16  1  0
 16 17  1  0
 17 18  1  0
 18 19  2  0
 19 20  1  0
 20 16  2  0
 19 21  1  0
 21 22  1  0
 22 23  2  0
 23 24  1  0
 24 25  2  0
 25 26  1  0
 26 21  2  0
  3 27  1  0
  5 28  1  0
  6 29  1  0
 10 30  1  0
 10 31  1  0
 11 32  1  0
 11 33  1  0
 12 34  1  0
 12 35  1  0
 13 36  1  0
 13 37  1  0
 18 38  1  0
 22 39  1  0
 23 40  1  0
 25 41  1  0
 26 42  1  0
  2 43  1  0
 43 44  2  0
 43 45  1  0
  1 46  1  0
 15 47  1  0
 24 48  1  0
  7 49  1  0
 49 50  1  0
  7 51  1  0
  8 52  1  0
M  CHG  2  43   1  45  -1
M  END
> <Name>
MRF2013_RI47_R

> <Clean Energy>
60.9595

$$$$
MRF2013_RI73
  SciTegic12132405553D

 38 39  0  0  0  0            999 V2000
   -4.0138    4.6908   -0.0458 C   0  0
   -2.8261    3.7769    0.2842 C   0  0
   -1.5625    4.5017   -0.0701 C   0  0
   -0.5616    3.7815   -0.9490 C   0  0
   -1.4745    5.7230    0.3271 N   0  0
   -0.5078    6.6967    0.1458 N   0  0
    0.9116    6.5377    0.2049 C   0  0
    1.9565    7.8316    0.0366 S   0  0
    3.3572    6.9950    0.1885 C   0  0
    3.0513    5.7074    0.3743 C   0  0
    1.5859    5.4558    0.3898 N   0  0
    4.0684    4.6475    0.5311 C   0  0
    5.5078    4.9686    0.4931 C   0  0
    6.4110    4.0002    0.6240 C   0  0
    5.9797    2.6163    0.8055 C   0  0
    4.6819    2.3234    0.8427 C   0  0
    3.6851    3.3849    0.7002 C   0  0
   -1.0904    3.3194   -1.7938 H   0  0
    0.2242    4.4568   -1.2963 H   0  0
   -0.8381    7.6288    0.0536 H   0  0
    4.3323    7.4074    0.1379 H   0  0
    5.8302    5.9689    0.3609 H   0  0
    7.4454    4.2332    0.5956 H   0  0
    4.3698    1.3185    0.9734 H   0  0
    2.6623    3.1489    0.7280 H   0  0
    0.0538    2.6186   -0.1373 C   0  0
    0.7866    2.0861   -0.7586 H   0  0
   -0.7324    1.9183    0.1770 H   0  0
    0.5571    3.0261    0.7525 H   0  0
   -5.3206    3.9796    0.3252 C   0  0
   -3.9292    5.6239    0.5291 H   0  0
   -6.1729    4.6338    0.0903 H   0  0
   -5.3187    3.7493    1.3997 H   0  0
   -5.4037    3.0467   -0.2504 H   0  0
    7.1543    1.3607    0.9704 Cl  0  0
   -4.0110    4.9207   -1.1209 H   0  0
   -2.8511    3.5971    1.3675 H   0  0
   -2.8939    2.8246   -0.2615 H   0  0
  1  2  1  0
  2  3  1  0
  3  4  1  0
  3  5  2  0
  5  6  1  0
  6  7  1  0
  7  8  1  0
  8  9  1  0
  9 10  2  0
 10 11  1  0
 11  7  2  0
 10 12  1  0
 12 13  1  0
 13 14  2  0
 14 15  1  0
 15 16  2  0
 16 17  1  0
 17 12  2  0
  4 18  1  0
  4 19  1  0
  6 20  1  0
  9 21  1  0
 13 22  1  0
 14 23  1  0
 16 24  1  0
 17 25  1  0
 26  4  1  0
 26 27  1  0
 26 28  1  0
 26 29  1  0
  1 30  1  0
  1 31  1  0
 30 32  1  0
 30 33  1  0
 30 34  1  0
 15 35  1  0
  1 36  1  0
  2 37  1  0
  2 38  1  0
M  END
> <Name>
MRF2013_RI73

> <Clean Energy>
52.8082809448242

$$$$
MRF2013_RI76
  SciTegic12132405553D

 42 43  0  0  0  0            999 V2000
   -4.0310    4.7895   -0.1177 C   0  0
   -2.8978    3.7897    0.1125 C   0  0
   -1.5705    4.4436   -0.1158 C   0  0
   -0.4715    3.5553   -0.6293 C   0  0
   -1.5064    5.7121    0.1171 N   0  0
   -0.5061    6.6939    0.0438 N   0  0
    0.9196    6.5415    0.1469 C   0  0
    1.9571    7.8559    0.2366 S   0  0
    3.3626    7.0088    0.3571 C   0  0
    3.0579    5.7100    0.3195 C   0  0
    1.6056    5.4579    0.2067 N   0  0
    4.0509    4.6254    0.3741 C   0  0
    5.4728    4.8975    0.5855 C   0  0
    6.3424    3.8890    0.6241 C   0  0
    5.8919    2.5004    0.4509 C   0  0
    4.5812    2.2651    0.2554 C   0  0
    3.6409    3.3755    0.2193 C   0  0
   -0.8785    2.8726   -1.3878 H   0  0
    0.3633    4.1333   -1.0229 H   0  0
   -0.8317    7.6319    0.0094 H   0  0
    4.3356    7.4248    0.4325 H   0  0
    5.8157    5.8918    0.7119 H   0  0
    7.3713    4.0903    0.7803 H   0  0
    4.2012    1.2888    0.1234 H   0  0
    2.6262    3.1838    0.0598 H   0  0
    0.0014    2.6686    0.5469 C   0  0
    0.8064    2.0045    0.2014 H   0  0
   -0.8329    2.0620    0.9237 H   0  0
    0.3816    3.3125    1.3545 H   0  0
   -5.3666    4.0863    0.1525 C   0  0
   -3.9179    5.6399    0.5695 H   0  0
   -6.1931    4.7922   -0.0082 H   0  0
   -5.3851    3.7275    1.1918 H   0  0
   -5.4732    3.2320   -0.5318 H   0  0
    6.9005    1.4740    0.5011 O   0  0
    6.4476    0.1165    0.3201 C   0  0
   -4.0012    5.1477   -1.1563 H   0  0
   -2.9459    3.4570    1.1590 H   0  0
   -2.9924    2.9058   -0.5345 H   0  0
    7.3062   -0.5661    0.3816 H   0  0
    5.9716    0.0153   -0.6675 H   0  0
    5.7210   -0.1395    1.1063 H   0  0
  1  2  1  0
  2  3  1  0
  3  4  1  0
  3  5  2  0
  5  6  1  0
  6  7  1  0
  7  8  1  0
  8  9  1  0
  9 10  2  0
 10 11  1  0
 11  7  2  0
 10 12  1  0
 12 13  1  0
 13 14  2  0
 14 15  1  0
 15 16  2  0
 16 17  1  0
 17 12  2  0
  4 18  1  0
  4 19  1  0
  6 20  1  0
  9 21  1  0
 13 22  1  0
 14 23  1  0
 16 24  1  0
 17 25  1  0
 26  4  1  0
 26 27  1  0
 26 28  1  0
 26 29  1  0
  1 30  1  0
  1 31  1  0
 30 32  1  0
 30 33  1  0
 30 34  1  0
 15 35  1  0
 35 36  1  0
  1 37  1  0
  2 38  1  0
  2 39  1  0
 36 40  1  0
 36 41  1  0
 36 42  1  0
M  END
> <Name>
MRF2013_RI76

> <Clean Energy>
57.537075

$$$$
MRF2013_RI77
  SciTegic12132405553D

 38 39  0  0  0  0            999 V2000
   -3.9675    4.7296   -0.1092 C   0  0
   -2.8134    3.7572    0.1141 C   0  0
   -1.5003    4.4263   -0.1375 C   0  0
   -0.3726    3.5234   -0.5731 C   0  0
   -1.4721    5.7103    0.0169 N   0  0
   -0.4985    6.7208   -0.0898 N   0  0
    0.9233    6.6063    0.0521 C   0  0
    1.9378    7.9384    0.1834 S   0  0
    3.3516    7.1059    0.3529 C   0  0
    3.0572    5.7998    0.2908 C   0  0
    1.6240    5.5397    0.1276 N   0  0
    4.0412    4.7250    0.3710 C   0  0
    5.4517    4.9683    0.6947 C   0  0
    6.3038    3.9528    0.7560 C   0  0
    5.8360    2.5850    0.4911 C   0  0
    4.5610    2.3696    0.1941 C   0  0
    3.6281    3.4756    0.1334 C   0  0
   -0.7466    2.8173   -1.3263 H   0  0
    0.4728    4.0872   -0.9540 H   0  0
   -0.8489    7.6477   -0.1605 H   0  0
    4.3174    7.5277    0.4666 H   0  0
    5.7892    5.9577    0.8871 H   0  0
    7.3227    4.1232    0.9950 H   0  0
    4.2199    1.3822   -0.0013 H   0  0
    2.6252    3.3045   -0.1077 H   0  0
    0.0569    2.6648    0.6468 C   0  0
    0.8794    1.9976    0.3508 H   0  0
   -0.7891    2.0597    1.0016 H   0  0
    0.3985    3.3274    1.4556 H   0  0
   -5.2791    3.9965    0.1908 C   0  0
   -3.8626    5.5895    0.5675 H   0  0
   -6.1260    4.6785    0.0366 H   0  0
   -5.2703    3.6493    1.2345 H   0  0
   -5.3742    3.1317   -0.4817 H   0  0
    6.5289    1.7447    0.5344 H   0  0
   -3.9617    5.0767   -1.1519 H   0  0
   -2.8386    3.4295    1.1632 H   0  0
   -2.8994    2.8642   -0.5211 H   0  0
  1  2  1  0
  2  3  1  0
  3  4  1  0
  3  5  2  0
  5  6  1  0
  6  7  1  0
  7  8  1  0
  8  9  1  0
  9 10  2  0
 10 11  1  0
 11  7  2  0
 10 12  1  0
 12 13  1  0
 13 14  2  0
 14 15  1  0
 15 16  2  0
 16 17  1  0
 17 12  2  0
  4 18  1  0
  4 19  1  0
  6 20  1  0
  9 21  1  0
 13 22  1  0
 14 23  1  0
 16 24  1  0
 17 25  1  0
 26  4  1  0
 26 27  1  0
 26 28  1  0
 26 29  1  0
  1 30  1  0
  1 31  1  0
 30 32  1  0
 30 33  1  0
 30 34  1  0
 15 35  1  0
  1 36  1  0
  2 37  1  0
  2 38  1  0
M  END
> <Name>
MRF2013_RI77

> <Clean Energy>
56.425186

$$$$
MRF2013_RI82
  SciTegic12132405553D

 35 36  0  0  0  0            999 V2000
   -8.3971    4.5730   -0.6301 C   0  0
   -7.9172    4.8659    0.7946 C   0  0
   -9.0172    5.6462    1.5251 C   0  0
   -7.6235    3.5329    1.4816 C   0  0
   -6.6698    5.6928    0.7394 C   0  0
   -5.7284    5.2241    0.6465 H   0  0
   -6.7803    6.9585    0.8146 N   0  0
   -5.7654    7.8616    0.8054 N   0  0
   -4.3850    7.5464    0.9481 C   0  0
   -3.8468    6.3826    1.0866 N   0  0
   -3.1989    8.7230    0.9771 S   0  0
   -1.9150    7.7228    1.1772 C   0  0
   -2.3712    6.4675    1.2233 C   0  0
   -1.4939    5.2911    1.3944 C   0  0
   -0.0337    5.4578    1.5406 C   0  0
    0.7488    4.3926    1.6932 C   0  0
    0.1666    3.0543    1.7160 C   0  0
   -1.1497    2.8968    1.5850 C   0  0
   -2.0200    4.0682    1.4171 C   0  0
    1.1885    1.6749    1.9127 Cl  0  0
   -7.6178    4.0212   -1.1727 H   0  0
   -8.6065    5.5202   -1.1469 H   0  0
   -9.3145    3.9674   -0.5865 H   0  0
   -8.6887    5.8650    2.5507 H   0  0
   -9.9352    5.0432    1.5531 H   0  0
   -9.2129    6.5883    0.9924 H   0  0
   -7.2777    3.7207    2.5073 H   0  0
   -6.8444    2.9982    0.9215 H   0  0
   -8.5411    2.9275    1.5069 H   0  0
   -6.0091    8.8219    0.7331 H   0  0
   -0.9022    8.0255    1.2544 H   0  0
    0.3993    6.4242    1.5257 H   0  0
    1.7975    4.5168    1.7985 H   0  0
   -1.5688    1.9233    1.6017 H   0  0
   -3.0675    3.9397    1.3126 H   0  0
  1  2  1  0
  2  3  1  0
  2  4  1  0
  2  5  1  0
  5  6  1  0
  5  7  2  0
  7  8  1  0
  8  9  1  0
  9 10  2  0
  9 11  1  0
 11 12  1  0
 12 13  2  0
 13 10  1  0
 13 14  1  0
 14 15  1  0
 15 16  2  0
 16 17  1  0
 17 18  2  0
 18 19  1  0
 19 14  2  0
 17 20  1  0
  1 21  1  0
  1 22  1  0
  1 23  1  0
  3 24  1  0
  3 25  1  0
  3 26  1  0
  4 27  1  0
  4 28  1  0
  4 29  1  0
  8 30  1  0
 12 31  1  0
 15 32  1  0
 16 33  1  0
 18 34  1  0
 19 35  1  0
M  END
> <Name>
MRF2013_RI82

> <Clean Energy>
32.3002

$$$$
MRF2013_RI83
  SciTegic12132405553D

 35 36  0  0  0  0            999 V2000
   -8.3971    4.5730   -0.6301 C   0  0
   -7.9172    4.8659    0.7946 C   0  0
   -9.0172    5.6462    1.5251 C   0  0
   -7.6235    3.5329    1.4816 C   0  0
   -6.6698    5.6928    0.7394 C   0  0
   -5.7284    5.2241    0.6465 H   0  0
   -6.7803    6.9585    0.8146 N   0  0
   -5.7654    7.8616    0.8054 N   0  0
   -4.3850    7.5464    0.9481 C   0  0
   -3.8468    6.3826    1.0866 N   0  0
   -3.1989    8.7230    0.9771 S   0  0
   -1.9150    7.7228    1.1772 C   0  0
   -2.3712    6.4675    1.2233 C   0  0
   -1.4939    5.2911    1.3944 C   0  0
   -0.0337    5.4578    1.5406 C   0  0
    0.7488    4.3926    1.6932 C   0  0
    0.1666    3.0543    1.7160 C   0  0
   -1.1497    2.8968    1.5850 C   0  0
   -2.0200    4.0682    1.4171 C   0  0
    0.8113    2.1841    1.8401 H   0  0
   -7.6178    4.0212   -1.1727 H   0  0
   -8.6065    5.5202   -1.1469 H   0  0
   -9.3145    3.9674   -0.5865 H   0  0
   -8.6887    5.8650    2.5507 H   0  0
   -9.9352    5.0432    1.5531 H   0  0
   -9.2129    6.5883    0.9924 H   0  0
   -7.2777    3.7207    2.5073 H   0  0
   -6.8444    2.9982    0.9215 H   0  0
   -8.5411    2.9275    1.5069 H   0  0
   -6.0091    8.8219    0.7331 H   0  0
   -0.9022    8.0255    1.2544 H   0  0
    0.3993    6.4242    1.5257 H   0  0
    1.7975    4.5168    1.7985 H   0  0
   -1.5688    1.9233    1.6017 H   0  0
   -3.0675    3.9397    1.3126 H   0  0
  1  2  1  0
  2  3  1  0
  2  4  1  0
  2  5  1  0
  5  6  1  0
  5  7  2  0
  7  8  1  0
  8  9  1  0
  9 10  2  0
  9 11  1  0
 11 12  1  0
 12 13  2  0
 13 10  1  0
 13 14  1  0
 14 15  1  0
 15 16  2  0
 16 17  1  0
 17 18  2  0
 18 19  1  0
 19 14  2  0
 17 20  1  0
  1 21  1  0
  1 22  1  0
  1 23  1  0
  3 24  1  0
  3 25  1  0
  3 26  1  0
  4 27  1  0
  4 28  1  0
  4 29  1  0
  8 30  1  0
 12 31  1  0
 15 32  1  0
 16 33  1  0
 18 34  1  0
 19 35  1  0
M  END
> <Name>
MRF2013_RI83

> <Clean Energy>
32.300236

$$$$
MRF2013_RI84
  SciTegic12132405553D

 39 40  0  0  0  0            999 V2000
   -8.1670    4.5807   -0.5939 C   0  0
   -7.7635    4.8100    0.8638 C   0  0
   -8.9426    5.4791    1.5763 C   0  0
   -7.4123    3.4648    1.5021 C   0  0
   -6.5766    5.7106    0.9007 C   0  0
   -5.6199    5.2920    1.0144 H   0  0
   -6.7455    6.9709    0.7939 N   0  0
   -5.7597    7.9213    0.8096 N   0  0
   -4.3686    7.6419    0.9338 C   0  0
   -3.8211    6.4851    1.0485 N   0  0
   -3.1830    8.8236    0.9491 S   0  0
   -1.8927    7.8092    1.1109 C   0  0
   -2.3609    6.5577    1.1546 C   0  0
   -1.5227    5.3606    1.2933 C   0  0
   -0.0622    5.4644    1.3946 C   0  0
    0.6815    4.3676    1.5192 C   0  0
    0.0247    3.0219    1.5564 C   0  0
   -1.3023    2.9522    1.4631 C   0  0
   -2.1063    4.1658    1.3264 C   0  0
    0.7401    1.7914    1.6872 O   0  0
   -7.3323    4.1121   -1.1336 H   0  0
   -8.4122    5.5454   -1.0599 H   0  0
   -9.0452    3.9208   -0.6289 H   0  0
   -8.6769    5.6629    2.6265 H   0  0
   -9.8191    4.8180    1.5282 H   0  0
   -9.1744    6.4334    1.0824 H   0  0
   -7.1233    3.6234    2.5504 H   0  0
   -6.5754    3.0093    0.9541 H   0  0
   -8.2872    2.8010    1.4573 H   0  0
   -6.0340    8.8730    0.7266 H   0  0
   -0.8751    8.1018    1.1694 H   0  0
    0.4080    6.4133    1.3689 H   0  0
    1.7322    4.4721    1.5901 H   0  0
   -1.7803    2.0062    1.4880 H   0  0
   -3.1627    4.0931    1.2529 H   0  0
    2.1675    1.9172    1.7838 C   0  0
    2.6147    0.9176    1.8802 H   0  0
    2.4267    2.5188    2.6676 H   0  0
    2.5577    2.4048    0.8780 H   0  0
  1  2  1  0
  2  3  1  0
  2  4  1  0
  2  5  1  0
  5  6  1  0
  5  7  2  0
  7  8  1  0
  8  9  1  0
  9 10  2  0
  9 11  1  0
 11 12  1  0
 12 13  2  0
 13 10  1  0
 13 14  1  0
 14 15  1  0
 15 16  2  0
 16 17  1  0
 17 18  2  0
 18 19  1  0
 19 14  2  0
 17 20  1  0
  1 21  1  0
  1 22  1  0
  1 23  1  0
  3 24  1  0
  3 25  1  0
  3 26  1  0
  4 27  1  0
  4 28  1  0
  4 29  1  0
  8 30  1  0
 12 31  1  0
 15 32  1  0
 16 33  1  0
 18 34  1  0
 19 35  1  0
 20 36  1  0
 36 37  1  0
 36 38  1  0
 36 39  1  0
M  END
> <Name>
MRF2013_RI84

> <Clean Energy>
33.0738105773926

$$$$
VGR2015_S1
  SciTegic12132405553D

 80 79  0  0  0  0            999 V2000
  -13.0842   -0.0308    0.0001 C   0  0
  -11.8134    0.3904    0.0002 C   0  0
  -14.1829    0.9826    0.0001 C   0  0
  -13.4476   -1.5003    0.0000 C   0  0
  -10.6581   -0.5771    0.0002 C   0  0
   -9.3081    0.1838    0.0003 C   0  0
   -8.0845   -0.7334    0.0004 C   0  0
   -6.8773   -0.1414    0.0004 C   0  0
   -8.2640   -2.2731    0.0004 C   0  0
   -5.5859   -0.9235    0.0005 C   0  0
   -4.3554    0.0159    0.0003 C   0  0
   -3.0161   -0.7284    0.0005 C   0  0
   -1.9035    0.0242    0.0002 C   0  0
   -2.9800   -2.2759    0.0008 C   0  0
   -0.5081   -0.5597    0.0003 C   0  0
    0.5347    0.5590   -0.0002 C   0  0
    1.9310   -0.0296    0.0000 C   0  0
    3.0299    0.7370   -0.0006 C   0  0
    2.8990    2.2799   -0.0014 C   0  0
    4.3885    0.0062   -0.0002 C   0  0
    5.6217    0.9336   -0.0006 C   0  0
    6.9110    0.1412   -0.0002 C   0  0
    8.1092    0.7442   -0.0005 C   0  0
    9.3504   -0.1669    0.0000 C   0  0
    8.1993    2.2917   -0.0014 C   0  0
   10.7045    0.5766    0.0000 C   0  0
   11.8524   -0.3997    0.0005 C   0  0
   13.1264    0.0120    0.0005 C   0  0
   14.2175   -1.0096    0.0010 C   0  0
   13.5006    1.4787    0.0000 C   0  0
  -11.6147    1.4319    0.0003 H   0  0
  -15.1676    0.4925    0.0003 H   0  0
  -14.0664    1.6299   -0.8802 H   0  0
  -14.0661    1.6303    0.8801 H   0  0
  -14.5392   -1.6293   -0.0001 H   0  0
  -13.0000   -1.9822    0.8824 H   0  0
  -12.9999   -1.9821   -0.8824 H   0  0
  -10.7377   -1.2213    0.8896 H   0  0
  -10.7376   -1.2212   -0.8892 H   0  0
   -9.2411    0.8403   -0.8781 H   0  0
   -9.2412    0.8403    0.8789 H   0  0
   -6.8305    0.9184    0.0004 H   0  0
   -7.3207   -2.8223    0.0005 H   0  0
   -8.8607   -2.5572   -0.8788 H   0  0
   -8.8609   -2.5572    0.8796 H   0  0
   -5.5732   -1.5731    0.8885 H   0  0
   -5.5732   -1.5733   -0.8874 H   0  0
   -4.3787    0.6753   -0.8784 H   0  0
   -4.3787    0.6755    0.8789 H   0  0
   -2.0085    1.0796    0.0000 H   0  0
   -1.9688   -2.6869    0.0009 H   0  0
   -3.5314   -2.6406   -0.8784 H   0  0
   -3.5314   -2.6401    0.8802 H   0  0
   -0.3846   -1.1974    0.8874 H   0  0
   -0.3847   -1.1982   -0.8862 H   0  0
    0.4087    1.1955   -0.8884 H   0  0
    0.4088    1.1962    0.8875 H   0  0
    2.0424   -1.0844    0.0006 H   0  0
    3.8570    2.7992   -0.0020 H   0  0
    2.3110    2.5825    0.8775 H   0  0
    2.3105    2.5815   -0.8803 H   0  0
    4.4142   -0.6543    0.8777 H   0  0
    4.4143   -0.6550   -0.8776 H   0  0
    5.6056    1.5828   -0.8889 H   0  0
    5.6055    1.5835    0.8873 H   0  0
    6.8664   -0.9186    0.0004 H   0  0
    9.2831   -0.8246    0.8776 H   0  0
    9.2834   -0.8251   -0.8773 H   0  0
    9.2209    2.6701   -0.0018 H   0  0
    7.6601    2.6751    0.8775 H   0  0
    7.6597    2.6742   -0.8805 H   0  0
   10.7863    1.2210   -0.8884 H   0  0
   10.7859    1.2215    0.8880 H   0  0
   11.6459   -1.4397    0.0009 H   0  0
   15.2058   -0.5267    0.0010 H   0  0
   14.0962   -1.6565   -0.8789 H   0  0
   14.0960   -1.6559    0.8814 H   0  0
   14.5931    1.5997    0.0000 H   0  0
   13.0565    1.9643    0.8821 H   0  0
   13.0567    1.9635   -0.8827 H   0  0
  1  2  2  0
  1  3  1  0
  1  4  1  0
  2  5  1  0
  5  6  1  0
  6  7  1  0
  7  8  2  0
  7  9  1  0
  8 10  1  0
 10 11  1  0
 11 12  1  0
 12 13  2  0
 12 14  1  0
 13 15  1  0
 15 16  1  0
 16 17  1  0
 17 18  2  0
 18 19  1  0
 18 20  1  0
 20 21  1  0
 21 22  1  0
 22 23  2  0
 23 24  1  0
 23 25  1  0
 24 26  1  0
 26 27  1  0
 27 28  2  0
 28 29  1  0
 28 30  1  0
  2 31  1  0
  3 32  1  0
  3 33  1  0
  3 34  1  0
  4 35  1  0
  4 36  1  0
  4 37  1  0
  5 38  1  0
  5 39  1  0
  6 40  1  0
  6 41  1  0
  8 42  1  0
  9 43  1  0
  9 44  1  0
  9 45  1  0
 10 46  1  0
 10 47  1  0
 11 48  1  0
 11 49  1  0
 13 50  1  0
 14 51  1  0
 14 52  1  0
 14 53  1  0
 15 54  1  0
 15 55  1  0
 16 56  1  0
 16 57  1  0
 17 58  1  0
 19 59  1  0
 19 60  1  0
 19 61  1  0
 20 62  1  0
 20 63  1  0
 21 64  1  0
 21 65  1  0
 22 66  1  0
 24 67  1  0
 24 68  1  0
 25 69  1  0
 25 70  1  0
 25 71  1  0
 26 72  1  0
 26 73  1  0
 27 74  1  0
 29 75  1  0
 29 76  1  0
 29 77  1  0
 30 78  1  0
 30 79  1  0
 30 80  1  0
M  END
> <Name>
VGR2015_S1

> <Clean Energy>
204.944

$$$$
VGR2015_S4
  SciTegic12132405553D

 81 85  0  0  0  0            999 V2000
   -4.6525   -1.7266   -0.5066 C   0  0
   -4.4578   -3.1766   -0.2640 C   0  0
   -3.1678   -3.7595   -0.7052 C   0  0  1  0  0  0
   -2.0320   -3.0799    0.1632 C   0  0  2  0  0  0
   -2.1371   -1.4722   -0.1246 C   0  0  1  0  0  0
   -3.5737   -0.9547    0.2831 C   0  0
   -0.6409   -3.5277   -0.3423 C   0  0
    0.5707   -2.7698    0.3148 C   0  0
    0.4531   -1.2407   -0.0580 C   0  0  1  0  0  0
   -0.9487   -0.5821    0.5550 C   0  0  1  0  0  0
    1.8189   -0.3846    0.3012 C   0  0  2  0  0  0
    1.6535    1.0721   -0.1612 C   0  0  1  0  0  0
    0.3277    1.7490    0.4836 C   0  0
   -1.0116    0.9117    0.0465 C   0  0
    3.1206   -0.9921   -0.5989 C   0  0
    4.3375    0.1122   -1.0688 C   0  0
    4.6489    1.0799   -0.0384 C   0  0  2  0  0  0
    3.1265    1.8832    0.3578 C   0  0  1  0  0  0
    5.7981    2.1630   -0.5471 C   0  0
    5.7589    3.2450    0.4743 C   0  0
    4.4116    4.0785    0.2441 C   0  0
    3.1907    3.1951   -0.2980 C   0  0
    5.3261    0.2234    1.1416 C   0  0
    1.3824    1.1915   -1.8043 C   0  0
    2.1330   -0.4514    1.8973 C   0  0
   -1.1333   -0.4690    2.1561 C   0  0
   -2.2146   -3.5600    1.6735 C   0  0
   -3.2276   -5.3154   -0.6526 C   0  0
   -5.3574   -3.8802    0.2074 O   0  0
    4.5418    5.1456   -0.8542 C   0  0
    4.1666    4.7611    1.5935 C   0  0
   -4.4576   -1.5207   -1.5683 H   0  0
   -5.6609   -1.4007   -0.2181 H   0  0
   -2.9753   -3.4279   -1.7350 H   0  0
   -2.0103   -1.3543   -1.2091 H   0  0
   -3.7264   -1.1100    1.3576 H   0  0
   -3.6774    0.1117    0.0523 H   0  0
   -0.5372   -4.6084   -0.1867 H   0  0
   -0.5845   -3.3081   -1.4171 H   0  0
    0.6070   -2.9100    1.4029 H   0  0
    1.4819   -3.1780   -0.1342 H   0  0
    0.3590   -1.1901   -1.1447 H   0  0
    0.4098    1.7550    1.5744 H   0  0
    0.2478    2.7840    0.1268 H   0  0
   -1.9227    1.3881    0.4295 H   0  0
   -1.0622    0.9005   -1.0350 H   0  0
    3.4681   -1.9125   -0.1105 H   0  0
    2.7578   -1.2537   -1.6015 H   0  0
    5.2193   -0.4307   -1.4321 H   0  0
    3.9627    0.7195   -1.8761 H   0  0
    3.1502    2.0795    1.4373 H   0  0
    6.7516    1.6265   -0.6379 H   0  0
    5.5525    2.6346   -1.5075 H   0  0
    5.7166    2.7204    1.4126 H   0  0
    6.6021    3.9477    0.5032 H   0  0
    2.2791    3.8004   -0.2182 H   0  0
    3.3623    2.9459   -1.3514 H   0  0
    5.5847    0.8780    1.9798 H   0  0
    4.6909   -0.5560    1.5052 H   0  0
    6.2420   -0.2381    0.7499 H   0  0
    1.2620    2.2498   -2.0664 H   0  0
    0.4829    0.6610   -2.1002 H   0  0
    2.1868    0.7918   -2.3900 H   0  0
    1.3606   -0.0366    2.4629 H   0  0
    3.0036    0.0736    2.1714 H   0  0
    2.2655   -1.4996    2.1888 H   0  0
   -2.1081   -0.0225    2.3769 H   0  0
   -0.3931    0.1624    2.5907 H   0  0
   -1.0696   -1.4183    2.6275 H   0  0
   -1.4462   -3.1501    2.3013 H   0  0
   -3.1949   -3.2529    2.0569 H   0  0
   -2.1351   -4.6502    1.7254 H   0  0
   -2.2757   -5.7391   -0.9989 H   0  0
   -4.0375   -5.6631   -1.3084 H   0  0
   -3.4270   -5.6546    0.3711 H   0  0
    3.6000    5.7062   -0.9281 H   0  0
    4.7553    4.6595   -1.8165 H   0  0
    5.3606    5.8321   -0.5991 H   0  0
    3.2636    5.3827    1.5280 H   0  0
    5.0315    5.3916    1.8429 H   0  0
    4.0328    3.9961    2.3712 H   0  0
  1  2  1  0
  2  3  1  0
  3  4  1  0
  4  5  1  0
  5  6  1  0
  6  1  1  0
  4  7  1  0
  7  8  1  0
  8  9  1  0
  9 10  1  0
 10  5  1  0
  9 11  1  0
 11 12  1  0
 12 13  1  0
 13 14  1  0
 14 10  1  0
 11 15  1  0
 15 16  1  0
 16 17  1  0
 17 18  1  0
 18 12  1  0
 17 19  1  0
 19 20  1  0
 20 21  1  0
 21 22  1  0
 22 18  1  0
 17 23  1  0
 12 24  1  0
 11 25  1  0
 10 26  1  0
  4 27  1  0
  3 28  1  0
  2 29  2  0
 21 30  1  0
 21 31  1  0
  1 32  1  0
  1 33  1  0
  3 34  1  0
  5 35  1  0
  6 36  1  0
  6 37  1  0
  7 38  1  0
  7 39  1  0
  8 40  1  0
  8 41  1  0
  9 42  1  0
 13 43  1  0
 13 44  1  0
 14 45  1  0
 14 46  1  0
 15 47  1  0
 15 48  1  0
 16 49  1  0
 16 50  1  0
 18 51  1  0
 19 52  1  0
 19 53  1  0
 20 54  1  0
 20 55  1  0
 22 56  1  0
 22 57  1  0
 23 58  1  0
 23 59  1  0
 23 60  1  0
 24 61  1  0
 24 62  1  0
 24 63  1  0
 25 64  1  0
 25 65  1  0
 25 66  1  0
 26 67  1  0
 26 68  1  0
 26 69  1  0
 27 70  1  0
 27 71  1  0
 27 72  1  0
 28 73  1  0
 28 74  1  0
 28 75  1  0
 30 76  1  0
 30 77  1  0
 30 78  1  0
 31 79  1  0
 31 80  1  0
 31 81  1  0
M  END
> <Name>
VGR2015_S4

> <Clean Energy>
199.803

$$$$
VGR2015_S5
  SciTegic12132405553D

 83 87  0  0  0  0            999 V2000
   -4.0216   -2.7037    1.0907 C   0  0
   -3.5575   -4.2442    0.7458 C   0  0  1  0  0  0
   -2.8558   -4.7520    1.9150 C   0  0  1  0  0  0
   -1.4493   -3.8197    1.9119 C   0  0  2  0  0  0
   -1.7066   -2.1969    1.2982 C   0  0  1  0  0  0
   -2.9229   -1.7665    1.8805 C   0  0
   -0.3604   -4.3304    0.9152 C   0  0
    0.9805   -3.4770    0.9364 C   0  0
    0.6940   -2.0124    0.4580 C   0  0  1  0  0  0
   -0.4286   -1.2511    1.4205 C   0  0  1  0  0  0
    2.0747   -1.1402    0.2220 C   0  0  2  0  0  0
    1.7277    0.2445   -0.3371 C   0  0  1  0  0  0
    0.6716    1.0210    0.6114 C   0  0
   -0.7049    0.1524    0.7549 C   0  0
    3.0275   -1.8727   -0.9787 C   0  0
    3.9978   -0.8499   -1.9502 C   0  0
    4.5997    0.2278   -1.1959 C   0  0  2  0  0  0
    3.2622    1.0921   -0.4298 C   0  0  1  0  0  0
    5.4997    1.2308   -2.1630 C   0  0
    5.7543    2.4240   -1.3103 C   0  0
    4.3788    3.2379   -1.1991 C   0  0
    3.0742    2.3101   -1.2225 C   0  0
    5.6421   -0.4970   -0.2078 C   0  0
    0.9315    0.1545   -1.8029 C   0  0
    2.8916   -1.0106    1.6253 C   0  0
   -0.1114   -0.9025    2.9603 C   0  0
   -0.9048   -4.0992    3.3684 C   0  0
   -3.8618   -4.7069    3.1853 C   0  0
   -4.7124   -4.9821    0.3560 O   0  0
    4.1294    4.1684   -2.3957 C   0  0
    4.5473    4.0761    0.0732 C   0  0
   -4.9041   -2.6781    1.7436 H   0  0
   -4.2959   -2.2724    0.1191 H   0  0
   -2.8427   -4.2695   -0.0811 H   0  0
   -2.5325   -5.8000    1.8603 H   0  0
   -1.9203   -2.2317    0.2191 H   0  0
   -2.8421   -1.9311    2.9628 H   0  0
   -3.2031   -0.7264    1.6744 H   0  0
   -0.1283   -5.3712    1.1758 H   0  0
   -0.7581   -4.2915   -0.1071 H   0  0
    1.4313   -3.4764    1.9354 H   0  0
    1.6733   -3.9457    0.2307 H   0  0
    0.2250   -2.0991   -0.5249 H   0  0
    1.1063    1.1723    1.6034 H   0  0
    0.4491    1.9997    0.1671 H   0  0
   -1.4575    0.6896    1.3464 H   0  0
   -1.1058   -0.0122   -0.2369 H   0  0
    3.5411   -2.7303   -0.5234 H   0  0
    2.3647   -2.2514   -1.7678 H   0  0
    4.7279   -1.4453   -2.5130 H   0  0
    3.3655   -0.3377   -2.6581 H   0  0
    3.6259    1.4218    0.5513 H   0  0
    6.3894    0.6769   -2.4900 H   0  0
    4.9510    1.5913   -3.0425 H   0  0
    6.0227    2.0123   -0.3528 H   0  0
    6.5441    3.1175   -1.6276 H   0  0
    2.9082    1.9326   -2.2384 H   0  0
    2.2195    2.9315   -0.9279 H   0  0
    6.3943   -1.0125   -0.8194 H   0  0
    6.1406    0.2458    0.4225 H   0  0
    5.1780   -1.2214    0.4276 H   0  0
    0.7024    1.1718   -2.1432 H   0  0
   -0.0001   -0.3965   -1.7179 H   0  0
    1.5112   -0.3294   -2.5649 H   0  0
    3.1413   -2.0152    1.9850 H   0  0
    3.7895   -0.4668    1.5356 H   0  0
    2.3305   -0.5181    2.3560 H   0  0
    0.7104   -0.2212    3.0457 H   0  0
   -0.9901   -0.4169    3.4018 H   0  0
    0.1247   -1.7682    3.5216 H   0  0
   -0.7840   -5.1830    3.4988 H   0  0
    0.0589   -3.6255    3.5185 H   0  0
   -1.6014   -3.7145    4.1194 H   0  0
   -4.7247   -5.3525    2.9722 H   0  0
   -4.2189   -3.7059    3.4200 H   0  0
   -3.3449   -5.0956    4.0718 H   0  0
   -5.1142   -4.5616   -0.4432 H   0  0
    4.9676    4.8724   -2.4894 H   0  0
    3.1965    4.7253   -2.2330 H   0  0
    4.0448    3.5721   -3.3147 H   0  0
    3.6508    4.6930    0.2233 H   0  0
    5.4279    4.7242   -0.0329 H   0  0
    4.6840    3.4081    0.9356 H   0  0
  1  2  1  0
  2  3  1  0
  3  4  1  0
  4  5  1  0
  5  6  1  0
  6  1  1  0
  4  7  1  0
  7  8  1  0
  8  9  1  0
  9 10  1  0
 10  5  1  0
  9 11  1  0
 11 12  1  0
 12 13  1  0
 13 14  1  0
 14 10  1  0
 11 15  1  0
 15 16  1  0
 16 17  1  0
 17 18  1  0
 18 12  1  0
 17 19  1  0
 19 20  1  0
 20 21  1  0
 21 22  1  0
 22 18  1  0
 17 23  1  0
 12 24  1  0
 11 25  1  0
 10 26  1  0
  4 27  1  0
  3 28  1  0
 21 30  1  0
 21 31  1  0
  2 29  1  0
  1 32  1  0
  1 33  1  0
  2 34  1  0
  3 35  1  0
  5 36  1  0
  6 37  1  0
  6 38  1  0
  7 39  1  0
  7 40  1  0
  8 41  1  0
  8 42  1  0
  9 43  1  0
 13 44  1  0
 13 45  1  0
 14 46  1  0
 14 47  1  0
 15 48  1  0
 15 49  1  0
 16 50  1  0
 16 51  1  0
 18 52  1  0
 19 53  1  0
 19 54  1  0
 20 55  1  0
 20 56  1  0
 22 57  1  0
 22 58  1  0
 23 59  1  0
 23 60  1  0
 23 61  1  0
 24 62  1  0
 24 63  1  0
 24 64  1  0
 25 65  1  0
 25 66  1  0
 25 67  1  0
 26 68  1  0
 26 69  1  0
 26 70  1  0
 27 71  1  0
 27 72  1  0
 27 73  1  0
 28 74  1  0
 28 75  1  0
 28 76  1  0
 29 77  1  0
 30 78  1  0
 30 79  1  0
 30 80  1  0
 31 81  1  0
 31 82  1  0
 31 83  1  0
M  END
> <Name>
VGR2015_S5

> <Clean Energy>
247.378

$$$$
VGR2015_S6.1
  SciTegic12132405553D

 81 85  0  0  0  0            999 V2000
   -4.7184   -2.7436   -0.2666 C   0  0
   -4.4110   -4.1214   -0.9551 C   0  0  1  0  0  0
   -3.2609   -4.9278   -0.2305 C   0  0
   -1.9606   -3.9458   -0.2603 C   0  0  1  0  0  0
   -2.2130   -2.4851    0.4076 C   0  0  2  0  0  0
   -3.4152   -1.8495   -0.3414 C   0  0
   -0.6579   -4.6197    0.3766 C   0  0
    0.5769   -3.7226    0.0152 C   0  0
    0.5146   -2.2680    0.5836 C   0  0  2  0  0  0
   -0.8502   -1.6286    0.0873 C   0  0  2  0  0  0
    1.7392   -1.3328   -0.0598 C   0  0  1  0  0  0
    1.5491    0.1641    0.2592 C   0  0
    0.3346    0.6675    0.5512 C   0  0
   -0.9287   -0.1737    0.7003 C   0  0
    3.1596   -1.8648    0.4163 C   0  0
    4.2998   -0.9493   -0.0506 C   0  0
    4.1274    0.4869    0.5660 C   0  0  2  0  0  0
    2.7503    1.1792    0.1413 C   0  0  1  0  0  0
    5.2681    1.1632   -0.1372 C   0  0
    5.3644    2.6412   -0.2120 C   0  0
    3.9599    3.2141   -0.6300 C   0  0  2  0  0  0
    2.9315    2.0834   -1.2228 C   0  0  2  0  0  0
    4.1664    0.4920    2.1205 C   0  0
   -5.6123   -4.9142   -1.0249 O   0  0
   -3.6968   -5.4795    1.1800 C   0  0
   -2.9715   -6.2010   -1.0447 C   0  0
    0.7002   -2.3422    2.1774 C   0  0
   -2.6054   -2.4629    1.9740 C   0  0
    1.7223   -1.3695   -1.6636 C   0  0
    4.2636    4.4617   -1.4827 C   0  0
    1.6111    2.7915   -1.5928 C   0  0
   -5.5153   -2.2388   -0.8280 H   0  0
   -5.0482   -2.8953    0.7676 H   0  0
   -4.0747   -3.8984   -1.9769 H   0  0
   -1.7596   -3.7708   -1.3260 H   0  0
   -3.6113   -0.8497    0.0649 H   0  0
   -3.1532   -1.7664   -1.4050 H   0  0
   -0.7747   -4.7578    1.4595 H   0  0
   -0.4830   -5.5913   -0.0948 H   0  0
    1.5090   -4.1965    0.3464 H   0  0
    0.5626   -3.6799   -1.0752 H   0  0
   -0.7848   -1.5997   -0.9952 H   0  0
    0.2592    1.7080    0.7303 H   0  0
   -1.0608   -0.2580    1.7812 H   0  0
   -1.7952    0.3794    0.3182 H   0  0
    3.2076   -1.8821    1.4989 H   0  0
    3.3046   -2.8854    0.0420 H   0  0
    5.2643   -1.3587    0.2759 H   0  0
    4.2929   -0.8863   -1.1411 H   0  0
    2.5318    2.0215    0.8012 H   0  0
    6.2230    0.7224    0.1771 H   0  0
    5.1288    0.8954   -1.1922 H   0  0
    5.7584    3.1963    0.6497 H   0  0
    6.0654    2.7254   -1.0531 H   0  0
    3.4348    3.5421    0.2739 H   0  0
    3.2795    1.5265   -2.1066 H   0  0
    4.1155    1.5298    2.4768 H   0  0
    5.1040    0.0324    2.4602 H   0  0
    3.3146   -0.0692    2.5268 H   0  0
   -5.9745   -5.0872   -0.1255 H   0  0
   -2.8697   -6.0517    1.6201 H   0  0
   -4.5602   -6.1434    1.0419 H   0  0
   -3.9816   -4.6990    1.8474 H   0  0
   -2.1592   -6.7713   -0.5777 H   0  0
   -2.6835   -5.9193   -2.0666 H   0  0
   -3.8772   -6.8220   -1.0758 H   0  0
    0.6655   -1.3378    2.6142 H   0  0
    1.6640   -2.7970    2.4165 H   0  0
   -0.0564   -2.9494    2.6260 H   0  0
   -2.7474   -1.4274    2.2993 H   0  0
   -1.8513   -2.9197    2.5722 H   0  0
   -3.5221   -2.9815    2.1521 H   0  0
    2.5181   -0.7420   -2.0708 H   0  0
    0.7668   -0.9926   -2.0394 H   0  0
    1.8706   -2.3955   -2.0163 H   0  0
    3.3317    4.9781   -1.7461 H   0  0
    4.7850    4.1549   -2.3998 H   0  0
    4.9055    5.1435   -0.9075 H   0  0
    0.8633    2.0402   -1.8815 H   0  0
    1.7777    3.4768   -2.4342 H   0  0
    1.2475    3.3568   -0.7230 H   0  0
  1  2  1  0
  2  3  1  0
  3  4  1  0
  4  5  1  0
  5  6  1  0
  6  1  1  0
  4  7  1  0
  7  8  1  0
  8  9  1  0
  9 10  1  0
 10  5  1  0
  9 11  1  0
 11 12  1  0
 12 13  2  0
 13 14  1  0
 14 10  1  0
 11 15  1  0
 15 16  1  0
 16 17  1  0
 17 18  1  0
 18 12  1  0
 17 19  1  0
 19 20  1  0
 20 21  1  0
 21 22  1  0
 22 18  1  0
 17 23  1  0
  2 24  1  0
  3 25  1  0
  3 26  1  0
  9 27  1  0
  5 28  1  0
 11 29  1  0
 21 30  1  0
 22 31  1  0
  1 32  1  0
  1 33  1  0
  2 34  1  0
  4 35  1  0
  6 36  1  0
  6 37  1  0
  7 38  1  0
  7 39  1  0
  8 40  1  0
  8 41  1  0
 10 42  1  0
 13 43  1  0
 14 44  1  0
 14 45  1  0
 15 46  1  0
 15 47  1  0
 16 48  1  0
 16 49  1  0
 18 50  1  0
 19 51  1  0
 19 52  1  0
 20 53  1  0
 20 54  1  0
 21 55  1  0
 22 56  1  0
 23 57  1  0
 23 58  1  0
 23 59  1  0
 24 60  1  0
 25 61  1  0
 25 62  1  0
 25 63  1  0
 26 64  1  0
 26 65  1  0
 26 66  1  0
 27 67  1  0
 27 68  1  0
 27 69  1  0
 28 70  1  0
 28 71  1  0
 28 72  1  0
 29 73  1  0
 29 74  1  0
 29 75  1  0
 30 76  1  0
 30 77  1  0
 30 78  1  0
 31 79  1  0
 31 80  1  0
 31 81  1  0
M  END
> <Name>
VGR2015_S6.1

> <Clean Energy>
146.336

$$$$
VGR2015_S6.2
  SciTegic12132405553D

 81 85  0  0  0  0            999 V2000
   -4.5577   -1.0575    0.1250 C   0  0
   -4.3672   -2.3213   -0.7908 C   0  0  1  0  0  0
   -3.2583   -3.3097   -0.2399 C   0  0
   -1.8904   -2.4241   -0.1382 C   0  0  1  0  0  0
   -2.0325   -1.0767    0.7588 C   0  0  2  0  0  0
   -3.1998   -0.2504    0.1545 C   0  0
   -0.6276   -3.2750    0.3606 C   0  0
    0.6616   -2.4165    0.1150 C   0  0
    0.7085   -1.0670    0.9029 C   0  0  2  0  0  0
   -0.6209   -0.2676    0.5450 C   0  0  2  0  0  0
    1.9840   -0.1236    0.3861 C   0  0  1  0  0  0
    1.8849    1.3280    0.9743 C   0  0
    0.7101    1.8573    1.3473 C   0  0
   -0.6008    1.0782    1.3799 C   0  0
    3.3831   -0.8079    0.7129 C   0  0
    4.5969    0.1161    0.3754 C   0  0
    4.5123    1.4418    1.2389 C   0  0  2  0  0  0
    3.1049    2.2901    1.0254 C   0  0  1  0  0  0
    5.8667    2.2623    0.7762 C   0  0
    5.6370    3.6225    1.1954 C   0  0
    4.4798    4.1803    0.1941 C   0  0
    3.3529    3.0557   -0.1885 C   0  0
    4.5111    1.1118    2.7852 C   0  0
   -5.6354   -3.0004   -0.9148 O   0  0
   -3.7489   -4.0348    1.0614 C   0  0
   -3.0335   -4.4652   -1.2443 C   0  0
    0.9148   -1.4005    2.4578 C   0  0
   -2.3964   -1.2875    2.3188 C   0  0
    1.9336    0.0724   -1.2091 C   0  0
    4.9932    4.6372   -1.1869 C   0  0
    3.9326    5.4128    0.9414 C   0  0
   -5.3308   -0.4165   -0.3187 H   0  0
   -4.8727   -1.3534    1.1318 H   0  0
   -4.0498   -1.9506   -1.7749 H   0  0
   -1.6884   -2.0973   -1.1673 H   0  0
   -3.3198    0.6799    0.7229 H   0  0
   -2.9524   -0.0117   -0.8888 H   0  0
   -0.7423   -3.5734    1.4108 H   0  0
   -0.5220   -4.1695   -0.2593 H   0  0
    1.5634   -2.9964    0.3465 H   0  0
    0.6343   -2.2060   -0.9546 H   0  0
   -0.5696   -0.0715   -0.5199 H   0  0
    0.7038    2.8593    1.6914 H   0  0
   -0.7271    0.8296    2.4361 H   0  0
   -1.4351    1.7357    1.1078 H   0  0
    3.4469   -1.0178    1.7714 H   0  0
    3.4540   -1.7570    0.1677 H   0  0
    5.5311   -0.4061    0.6185 H   0  0
    4.5954    0.3685   -0.6899 H   0  0
    2.9307    3.0755    1.7620 H   0  0
    6.7450    1.7540    1.1946 H   0  0
    5.9683    2.3125   -0.3108 H   0  0
    5.2799    3.5409    2.2187 H   0  0
    6.4907    4.3123    1.1700 H   0  0
    2.4929    3.5871   -0.6154 H   0  0
    3.7162    2.3252   -0.9102 H   0  0
    4.5065    2.0471    3.3585 H   0  0
    5.4139    0.5374    3.0310 H   0  0
    3.6235    0.5300    3.0589 H   0  0
   -5.5788   -3.7540   -1.5444 H   0  0
   -4.6561   -4.6048    0.8202 H   0  0
   -3.9857   -3.3459    1.8415 H   0  0
   -2.9698   -4.7258    1.4092 H   0  0
   -3.9707   -5.0230   -1.3688 H   0  0
   -2.7230   -4.0479   -2.2118 H   0  0
   -2.2588   -5.1454   -0.8717 H   0  0
    0.9551   -0.4764    3.0453 H   0  0
    1.8510   -1.9469    2.5956 H   0  0
    0.1270   -2.0208    2.8279 H   0  0
   -2.4629   -0.3127    2.8123 H   0  0
   -1.6638   -1.8831    2.8130 H   0  0
   -3.3410   -1.7696    2.4369 H   0  0
    2.7589    0.6924   -1.5466 H   0  0
    0.9992    0.5578   -1.5024 H   0  0
    2.0081   -0.8990   -1.7077 H   0  0
    4.1548    5.0463   -1.7670 H   0  0
    5.4253    3.7812   -1.7229 H   0  0
    5.7601    5.4119   -1.0511 H   0  0
    3.1413    5.8804    0.3398 H   0  0
    4.7481    6.1315    1.1004 H   0  0
    3.5225    5.1034    1.9127 H   0  0
  1  2  1  0
  2  3  1  0
  3  4  1  0
  4  5  1  0
  5  6  1  0
  6  1  1  0
  4  7  1  0
  7  8  1  0
  8  9  1  0
  9 10  1  0
 10  5  1  0
  9 11  1  0
 11 12  1  0
 12 13  2  0
 13 14  1  0
 14 10  1  0
 11 15  1  0
 15 16  1  0
 16 17  1  0
 17 18  1  0
 18 12  1  0
 17 19  1  0
 19 20  1  0
 20 21  1  0
 21 22  1  0
 22 18  1  0
 17 23  1  0
  2 24  1  0
  3 25  1  0
  3 26  1  0
  9 27  1  0
  5 28  1  0
 11 29  1  0
 21 30  1  0
 21 31  1  0
  1 32  1  0
  1 33  1  0
  2 34  1  0
  4 35  1  0
  6 36  1  0
  6 37  1  0
  7 38  1  0
  7 39  1  0
  8 40  1  0
  8 41  1  0
 10 42  1  0
 13 43  1  0
 14 44  1  0
 14 45  1  0
 15 46  1  0
 15 47  1  0
 16 48  1  0
 16 49  1  0
 18 50  1  0
 19 51  1  0
 19 52  1  0
 20 53  1  0
 20 54  1  0
 22 55  1  0
 22 56  1  0
 23 57  1  0
 23 58  1  0
 23 59  1  0
 24 60  1  0
 25 61  1  0
 25 62  1  0
 25 63  1  0
 26 64  1  0
 26 65  1  0
 26 66  1  0
 27 67  1  0
 27 68  1  0
 27 69  1  0
 28 70  1  0
 28 71  1  0
 28 72  1  0
 29 73  1  0
 29 74  1  0
 29 75  1  0
 30 76  1  0
 30 77  1  0
 30 78  1  0
 31 79  1  0
 31 80  1  0
 31 81  1  0
M  END
> <Name>
VGR2015_S6.2

> <Clean Energy>
122.048

$$$$
VGR2015_S7
  SciTegic12132405553D

 80 83  0  0  0  0            999 V2000
   -6.7437   -2.2965    0.9863 C   0  0
   -6.6050   -3.8418    0.7946 C   0  0  1  0  0  0
   -5.1513   -4.2471    0.3972 C   0  0
   -3.9858   -3.4557    0.8591 C   0  0
   -4.1634   -1.9553    1.0257 C   0  0  2  0  0  0
   -5.5939   -1.4744    0.2916 C   0  0
   -2.7866   -4.0525    0.8086 C   0  0
   -1.4867   -3.2537    0.7667 C   0  0
   -1.6028   -1.7820    1.1909 C   0  0  2  0  0  0
   -2.8509   -1.1812    0.4638 C   0  0  2  0  0  0
   -0.3279   -1.0033    0.7854 C   0  0  1  0  0  0
   -0.3926    0.4638    1.0613 C   0  0  2  0  0  0
   -1.6253    1.0365    0.2456 C   0  0
   -2.9534    0.3767    0.7238 C   0  0
    0.9841   -1.4775    1.4699 C   0  0
    1.9120   -0.2173    1.3383 C   0  0
    1.1032    0.8096    0.4574 C   0  0  2  0  0  0
   -7.1314   -4.3910    2.0025 O   0  0
   -4.2460   -1.6717    2.6396 C   0  0
   -0.5743    0.8957    2.6071 C   0  0
    1.6475    2.3776    0.5009 C   0  0  2  0  0  0
    0.8055    3.2992   -0.4079 C   0  0
    3.1131    2.7010   -0.0264 C   0  0
    4.2995    2.0552    0.7779 C   0  0
    5.7547    2.5134    0.3001 C   0  0  2  0  0  0
    6.8459    1.6505    1.1819 C   0  0
    8.3368    1.8911    0.8349 C   0  0
    6.6836    0.1248    0.9251 C   0  0
    5.7971    4.1320    0.5022 C   0  0
    7.0640    4.9091    0.0614 C   0  0
   -7.7754   -1.9856    0.7729 H   0  0
   -6.5849   -2.0972    2.0122 H   0  0
   -7.1954   -4.2056   -0.0566 H   0  0
   -4.9886   -5.3331    0.3868 H   0  0
   -5.1241   -3.9290   -0.6553 H   0  0
   -5.5742   -1.6714   -0.7903 H   0  0
   -5.7462   -0.4012    0.4668 H   0  0
   -2.7479   -5.0876    0.5902 H   0  0
   -0.6678   -3.7805    1.2731 H   0  0
   -1.2448   -3.2344   -0.3046 H   0  0
   -1.7232   -1.6881    2.2577 H   0  0
   -2.7264   -1.3392   -0.6154 H   0  0
   -0.1872   -1.0630   -0.3020 H   0  0
   -1.6770    2.1189    0.3643 H   0  0
   -1.4973    0.7863   -0.8167 H   0  0
   -3.0923    0.5877    1.7794 H   0  0
   -3.8040    0.7861    0.1648 H   0  0
    1.3446   -2.4387    1.0778 H   0  0
    0.8185   -1.5541    2.5522 H   0  0
    1.9133    0.2185    2.3346 H   0  0
    2.9511   -0.4161    1.0656 H   0  0
    1.1138    0.4496   -0.5802 H   0  0
   -7.0983   -5.3775    1.9569 H   0  0
   -4.3838   -0.6017    2.8272 H   0  0
   -3.3438   -2.0079    3.1461 H   0  0
   -5.0795   -2.2128    3.0835 H   0  0
   -0.5494    1.9915    2.6686 H   0  0
    0.2141    0.4923    3.2436 H   0  0
   -1.5309    0.5388    2.9963 H   0  0
    1.5886    2.7264    1.5399 H   0  0
   -0.2328    3.2817   -0.1151 H   0  0
    1.1792    4.3281   -0.3171 H   0  0
    0.9023    2.9664   -1.4510 H   0  0
    3.1930    2.4148   -1.0838 H   0  0
    3.2077    3.7833    0.0584 H   0  0
    4.1971    2.3224    1.8379 H   0  0
    4.2097    0.9914    0.6654 H   0  0
    5.8911    2.2748   -0.7631 H   0  0
    6.6834    1.8643    2.2475 H   0  0
    8.9577    1.2451    1.4712 H   0  0
    8.6144    2.9176    1.0150 H   0  0
    8.5107    1.6397   -0.2199 H   0  0
    5.6778   -0.2160    1.1879 H   0  0
    6.8748   -0.0831   -0.1371 H   0  0
    7.4141   -0.4195    1.5397 H   0  0
    4.9901    4.5702   -0.0855 H   0  0
    5.6152    4.3453    1.5653 H   0  0
    6.8988    5.9825    0.2340 H   0  0
    7.2476    4.7356   -1.0069 H   0  0
    7.9256    4.5971    0.6379 H   0  0
  1  2  1  0
  2  3  1  0
  3  4  1  0
  4  5  1  0
  5  6  1  0
  6  1  1  0
  4  7  2  0
  7  8  1  0
  8  9  1  0
  9 10  1  0
 10  5  1  0
  9 11  1  0
 11 12  1  0
 12 13  1  0
 13 14  1  0
 14 10  1  0
 15 16  1  0
 16 17  1  0
 17 12  1  0
  2 18  1  0
  5 19  1  0
 12 20  1  0
 11 15  1  0
 17 21  1  0
 21 22  1  0
 21 23  1  0
 23 24  1  0
 24 25  1  0
 25 26  1  0
 26 27  1  0
 26 28  1  0
 25 29  1  0
 29 30  1  0
  1 31  1  0
  1 32  1  0
  2 33  1  0
  3 34  1  0
  3 35  1  0
  6 36  1  0
  6 37  1  0
  7 38  1  0
  8 39  1  0
  8 40  1  0
  9 41  1  0
 10 42  1  0
 11 43  1  0
 13 44  1  0
 13 45  1  0
 14 46  1  0
 14 47  1  0
 15 48  1  0
 15 49  1  0
 16 50  1  0
 16 51  1  0
 17 52  1  0
 18 53  1  0
 19 54  1  0
 19 55  1  0
 19 56  1  0
 20 57  1  0
 20 58  1  0
 20 59  1  0
 21 60  1  0
 22 61  1  0
 22 62  1  0
 22 63  1  0
 23 64  1  0
 23 65  1  0
 24 66  1  0
 24 67  1  0
 25 68  1  0
 26 69  1  0
 27 70  1  0
 27 71  1  0
 27 72  1  0
 28 73  1  0
 28 74  1  0
 28 75  1  0
 29 76  1  0
 29 77  1  0
 30 78  1  0
 30 79  1  0
 30 80  1  0
M  END
> <Name>
VGR2015_S7

> <Clean Energy>
186.946

$$$$
VGR2015_S8
  SciTegic12132405553D

 82 86  0  0  0  0            999 V2000
   -5.8183   -0.9798    0.7526 C   0  0
   -5.5534   -2.4365    0.8364 C   0  0
   -4.4606   -2.9658   -0.0145 C   0  0  1  0  0  0
   -3.1150   -2.3140    0.5034 C   0  0  2  0  0  0
   -3.3079   -0.6947    0.3618 C   0  0  1  0  0  0
   -4.5520   -0.2319    1.2198 C   0  0
   -1.9450   -2.7018   -0.4312 C   0  0
   -0.5926   -1.9587   -0.1299 C   0  0
   -0.8210   -0.4132   -0.3502 C   0  0  1  0  0  0
   -1.9717    0.1788    0.7011 C   0  0  1  0  0  0
    0.5879    0.4467   -0.3661 C   0  0  2  0  0  0
    0.2892    1.9240   -0.6571 C   0  0  1  0  0  0
   -0.7803    2.5320    0.3983 C   0  0
   -2.1879    1.6980    0.3316 C   0  0
    1.5595   -0.0706   -1.6583 C   0  0
    2.5806    1.0920   -2.3924 C   0  0
    3.1862    1.9910   -1.4313 C   0  0  2  0  0  0
    1.8466    2.7289   -0.5446 C   0  0  1  0  0  0
    4.1336    3.1394   -2.1688 C   0  0
    4.3919    4.1391   -1.0960 C   0  0
    3.0328    4.9520   -0.8581 C   0  0
    1.7096    4.0821   -1.0900 C   0  0
   -6.2570   -3.1836    1.5244 O   0  0
    1.3689    0.2814    1.0542 C   0  0
   -4.4968   -4.5231   -0.0410 C   0  0
   -2.8229   -2.8850    1.9644 C   0  0
   -1.6629    0.1952    2.2887 C   0  0
   -0.4634    2.1428   -2.1315 C   0  0
    4.1848    1.0633   -0.5718 C   0  0
    5.1728    0.5253   -1.4492 O   0  0
    2.8358    6.1028   -1.8564 C   0  0
    3.1859    5.5231    0.5561 C   0  0
   -5.9587   -0.7097   -0.3033 H   0  0
   -6.6902   -0.6922    1.3554 H   0  0
   -4.5950   -2.5713   -1.0313 H   0  0
   -3.5193   -0.5113   -0.7002 H   0  0
   -4.3682   -0.4522    2.2780 H   0  0
   -4.7240    0.8436    1.0977 H   0  0
   -1.7959   -3.7873   -0.3826 H   0  0
   -2.2217   -2.4183   -1.4557 H   0  0
   -0.2253   -2.1631    0.8841 H   0  0
    0.1391   -2.3192   -0.8604 H   0  0
   -1.2419   -0.2979   -1.3515 H   0  0
   -0.3729    2.4718    1.4114 H   0  0
   -0.9638    3.5855    0.1508 H   0  0
   -2.9407    2.1318    1.0014 H   0  0
   -2.5632    1.7516   -0.6831 H   0  0
    2.0390   -1.0136   -1.3630 H   0  0
    0.9122   -0.2725   -2.5219 H   0  0
    1.9805    1.7468   -3.0032 H   0  0
    3.3112    0.5950   -3.0430 H   0  0
    2.1886    2.8519    0.4905 H   0  0
    3.6154    3.6762   -2.9736 H   0  0
    5.0198    2.6389   -2.5784 H   0  0
    4.6265    3.5431   -0.2314 H   0  0
    5.2047    4.8595   -1.2562 H   0  0
    0.8611    4.6578   -0.7002 H   0  0
    1.5637    3.9133   -2.1634 H   0  0
    0.8035    0.6406    1.8525 H   0  0
    2.2809    0.8052    1.0907 H   0  0
    1.5840   -0.7806    1.2189 H   0  0
   -5.4680   -4.8501   -0.4363 H   0  0
   -3.6964   -4.9057   -0.6878 H   0  0
   -4.3706   -4.9243    0.9720 H   0  0
   -2.7284   -3.9743    1.9222 H   0  0
   -1.8995   -2.4960    2.3500 H   0  0
   -3.6384   -2.6215    2.6485 H   0  0
   -2.5257    0.6086    2.8207 H   0  0
   -0.8270    0.8156    2.5176 H   0  0
   -1.4575   -0.7773    2.6601 H   0  0
    0.1279    1.7986   -2.9577 H   0  0
   -1.4101    1.6133   -2.1787 H   0  0
   -0.6579    3.2130   -2.2734 H   0  0
    3.6845    0.2459   -0.0989 H   0  0
    4.6794    1.6599    0.2007 H   0  0
    5.7982   -0.0383   -0.9326 H   0  0
    3.6915    6.7889   -1.7934 H   0  0
    2.7624    5.6981   -2.8753 H   0  0
    1.9115    6.6425   -1.6091 H   0  0
    2.2995    6.1230    0.8036 H   0  0
    4.0830    6.1558    0.5972 H   0  0
    3.2848    4.6974    1.2751 H   0  0
  1  2  1  0
  2  3  1  0
  3  4  1  0
  4  5  1  0
  5  6  1  0
  6  1  1  0
  4  7  1  0
  7  8  1  0
  8  9  1  0
  9 10  1  0
 10  5  1  0
  9 11  1  0
 11 12  1  0
 12 13  1  0
 13 14  1  0
 14 10  1  0
 11 15  1  0
 15 16  1  0
 16 17  1  0
 17 18  1  0
 18 12  1  0
 17 19  1  0
 19 20  1  0
 20 21  1  0
 21 22  1  0
 22 18  1  0
 11 24  1  0
  2 23  2  0
  3 25  1  0
  4 26  1  0
 10 27  1  0
 12 28  1  0
 17 29  1  0
 29 30  1  0
 21 31  1  0
 21 32  1  0
  1 33  1  0
  1 34  1  0
  3 35  1  0
  5 36  1  0
  6 37  1  0
  6 38  1  0
  7 39  1  0
  7 40  1  0
  8 41  1  0
  8 42  1  0
  9 43  1  0
 13 44  1  0
 13 45  1  0
 14 46  1  0
 14 47  1  0
 15 48  1  0
 15 49  1  0
 16 50  1  0
 16 51  1  0
 18 52  1  0
 19 53  1  0
 19 54  1  0
 20 55  1  0
 20 56  1  0
 22 57  1  0
 22 58  1  0
 24 59  1  0
 24 60  1  0
 24 61  1  0
 25 62  1  0
 25 63  1  0
 25 64  1  0
 26 65  1  0
 26 66  1  0
 26 67  1  0
 27 68  1  0
 27 69  1  0
 27 70  1  0
 28 71  1  0
 28 72  1  0
 28 73  1  0
 29 74  1  0
 29 75  1  0
 30 76  1  0
 31 77  1  0
 31 78  1  0
 31 79  1  0
 32 80  1  0
 32 81  1  0
 32 82  1  0
M  END
> <Name>
VGR2015_S8

> <Clean Energy>
199.147

$$$$
VGR2015_S9
  SciTegic12132405553D

 82 86  0  0  0  0            999 V2000
   -5.1956   -0.8918   -1.6772 C   0  0
   -5.2631   -2.3444   -1.3908 C   0  0
   -3.9905   -3.1008   -1.4712 C   0  0  1  0  0  0
   -3.0461   -2.5399   -0.3317 C   0  0  2  0  0  0
   -2.8596   -0.9434   -0.6363 C   0  0  1  0  0  0
   -4.2742   -0.2356   -0.6280 C   0  0
   -1.6424   -3.1810   -0.4445 C   0  0
   -0.5648   -2.5632    0.5177 C   0  0
   -0.3602   -1.0472    0.1298 C   0  0  1  0  0  0
   -1.7893   -0.1869    0.3382 C   0  0  1  0  0  0
    0.9600   -0.3742    0.9016 C   0  0  2  0  0  0
    1.1027    1.1599    0.3213 C   0  0  1  0  0  0
   -0.2664    1.9791    0.6009 C   0  0
   -1.5410    1.2816   -0.1565 C   0  0
    2.3727   -1.1360    0.5732 C   0  0
    3.5790   -0.4380    1.3955 C   0  0
    3.7343    1.0786    1.0801 C   0  0  2  0  0  0
    2.4290    1.8672    1.2221 C   0  0  1  0  0  0
    4.3307    1.3592   -0.4841 C   0  0
    3.9915    2.9025   -1.1693 C   0  0
    4.1335    3.9005   -0.1977 C   0  0  2  0  0  0
    2.8971    3.5051    0.9371 C   0  0
   -6.3385   -2.9106   -1.1684 O   0  0
    0.7877   -0.4901    2.5200 C   0  0
   -4.2666   -4.6336   -1.4334 C   0  0
   -3.6852   -2.9372    1.0760 C   0  0
   -2.3730    0.0066    1.8270 C   0  0
    1.2163    1.1330   -1.3103 C   0  0
    4.7064    1.5235    2.2506 C   0  0
    3.8796    5.3404   -0.6390 C   0  0
    5.6742    3.9292    0.2107 C   0  0
    4.0469    6.2157    0.4757 O   0  0
   -4.7009   -0.7490   -2.6480 H   0  0
   -6.1928   -0.4315   -1.6682 H   0  0
   -3.4903   -2.8341   -2.4125 H   0  0
   -2.4351   -0.8789   -1.6472 H   0  0
   -4.7255   -0.3333    0.3665 H   0  0
   -4.1743    0.8267   -0.8778 H   0  0
   -1.7302   -4.2594   -0.2655 H   0  0
   -1.2703   -3.0105   -1.4638 H   0  0
    0.3720   -3.1023    0.3397 H   0  0
   -0.8498   -2.6677    1.5722 H   0  0
   -0.1404   -1.0357   -0.9340 H   0  0
   -0.4521    2.0205    1.6794 H   0  0
   -0.1439    3.0010    0.2185 H   0  0
   -2.4565    1.8696   -0.0173 H   0  0
   -1.3232    1.2487   -1.2148 H   0  0
    2.3046   -2.1830    0.8934 H   0  0
    2.5758   -1.1035   -0.5015 H   0  0
    4.5372   -0.9463    1.2273 H   0  0
    3.3364   -0.5265    2.4451 H   0  0
    2.0346    1.8100    2.2349 H   0  0
    3.8348    0.7248   -1.1938 H   0  0
    5.3911    1.0730   -0.4734 H   0  0
    4.6234    3.0597   -2.0529 H   0  0
    2.9703    2.9818   -1.4565 H   0  0
    1.9308    3.9254    0.6338 H   0  0
    3.2335    4.0255    1.8442 H   0  0
    1.6222   -0.0496    3.0500 H   0  0
    0.7189   -1.5475    2.8011 H   0  0
   -0.0617    0.0080    2.8583 H   0  0
   -3.3216   -5.1869   -1.5121 H   0  0
   -4.9128   -4.9000   -2.2808 H   0  0
   -4.7726   -4.9066   -0.4994 H   0  0
   -3.7672   -4.0259    1.1492 H   0  0
   -4.6825   -2.4942    1.1826 H   0  0
   -3.0638   -2.6052    1.8863 H   0  0
   -2.5576   -0.9253    2.3024 H   0  0
   -1.6954    0.5607    2.4391 H   0  0
   -3.3058    0.5776    1.7791 H   0  0
    1.2835    2.1595   -1.6749 H   0  0
    0.3667    0.6678   -1.7858 H   0  0
    2.0770    0.5822   -1.6284 H   0  0
    4.9356    2.5653    2.2517 H   0  0
    5.6424    0.9563    2.1643 H   0  0
    4.2242    1.2818    3.2076 H   0  0
    2.8530    5.4260   -1.0217 H   0  0
    4.5918    5.6103   -1.4307 H   0  0
    6.0447    2.9872    0.5695 H   0  0
    6.2610    4.2136   -0.6730 H   0  0
    5.8180    4.6821    0.9965 H   0  0
    3.8812    7.1471    0.1899 H   0  0
  1  2  1  0
  2  3  1  0
  3  4  1  0
  4  5  1  0
  5  6  1  0
  6  1  1  0
  4  7  1  0
  7  8  1  0
  8  9  1  0
  9 10  1  0
 10  5  1  0
  9 11  1  0
 11 12  1  0
 12 13  1  0
 13 14  1  0
 14 10  1  0
 11 15  1  0
 15 16  1  0
 16 17  1  0
 17 18  1  0
 18 12  1  0
 17 19  1  0
 19 20  1  0
 20 21  1  0
 21 22  1  0
 22 18  1  0
 11 24  1  0
  2 23  2  0
  3 25  1  0
  4 26  1  0
 10 27  1  0
 12 28  1  0
 17 29  1  0
 21 30  1  0
 21 31  1  0
 30 32  1  0
  1 33  1  0
  1 34  1  0
  3 35  1  0
  5 36  1  0
  6 37  1  0
  6 38  1  0
  7 39  1  0
  7 40  1  0
  8 41  1  0
  8 42  1  0
  9 43  1  0
 13 44  1  0
 13 45  1  0
 14 46  1  0
 14 47  1  0
 15 48  1  0
 15 49  1  0
 16 50  1  0
 16 51  1  0
 18 52  1  0
 19 53  1  0
 19 54  1  0
 20 55  1  0
 20 56  1  0
 22 57  1  0
 22 58  1  0
 24 59  1  0
 24 60  1  0
 24 61  1  0
 25 62  1  0
 25 63  1  0
 25 64  1  0
 26 65  1  0
 26 66  1  0
 26 67  1  0
 27 68  1  0
 27 69  1  0
 27 70  1  0
 28 71  1  0
 28 72  1  0
 28 73  1  0
 29 74  1  0
 29 75  1  0
 29 76  1  0
 30 77  1  0
 30 78  1  0
 31 79  1  0
 31 80  1  0
 31 81  1  0
 32 82  1  0
M  END
> <Name>
VGR2015_S9

> <Clean Energy>
177.665

$$$$
VGR2015_S10
  SciTegic12132405553D

 84 87  0  0  0  0            999 V2000
   -4.2501   -1.1368   -0.2753 C   0  0
   -3.9762   -4.5805   -0.3277 C   0  0
   -2.4449   -4.4893   -0.4483 C   0  0
   -1.5424   -3.4492    0.4078 C   0  0  2  0  0  0
   -1.5970   -1.7393    0.0537 C   0  0  1  0  0  0
   -2.9328   -0.8281    0.3893 C   0  0
   -0.1300   -3.9086   -0.0032 C   0  0
    1.0682   -3.1912    0.6597 C   0  0
    1.0669   -1.6944    0.2579 C   0  0  1  0  0  0
   -0.3103   -0.9214    0.7915 C   0  0  1  0  0  0
    2.4905   -0.9530    0.6784 C   0  0  2  0  0  0
    2.4830    0.5011    0.2079 C   0  0  1  0  0  0
    1.1989    1.2940    0.7732 C   0  0
   -0.1827    0.5816    0.2672 C   0  0
    3.7853   -1.6738   -0.1577 C   0  0
    5.1234   -0.6796   -0.5541 C   0  0
    5.4574    0.2459    0.5037 C   0  0  2  0  0  0
    3.9877    1.1779    0.8142 C   0  0  1  0  0  0
    6.7272    1.2302    0.0900 C   0  0
    6.7107    2.2962    1.1287 C   0  0
    5.4579    3.2461    0.8239 C   0  0
    4.2048    2.4802    0.1814 C   0  0
    2.7140   -1.0380    2.2947 C   0  0
   -1.8375   -3.8343    1.8902 C   0  0
   -0.5546   -0.7648    2.3832 C   0  0
    2.3156    0.6375   -1.4482 C   0  0
    5.9848   -0.6867    1.7053 C   0  0
    5.7556    4.3157   -0.2368 C   0  0
    5.1755    3.9256    2.1695 C   0  0
   -5.2758   -0.1240    0.1192 C   0  0
   -6.4879   -0.0679   -0.5596 O   0  0
   -5.0435    0.6674    1.0397 O   0  0
   -4.1663   -1.1558   -1.3712 H   0  0
   -4.6074   -2.0777    0.0444 H   0  0
   -4.2639   -4.7733    0.7157 H   0  0
   -4.3255   -5.4112   -0.9555 H   0  0
   -4.4347   -3.6973   -0.6753 H   0  0
   -2.2027   -4.3407   -1.5090 H   0  0
   -2.0957   -5.4861   -0.1457 H   0  0
   -1.3994   -1.6728   -1.0247 H   0  0
   -3.1065   -0.8368    1.4698 H   0  0
   -2.7239    0.1887    0.0731 H   0  0
   -0.0573   -4.9816    0.2178 H   0  0
   -0.0271   -3.7549   -1.0862 H   0  0
    1.0536   -3.3058    1.7510 H   0  0
    1.9700   -3.6627    0.2597 H   0  0
    1.0293   -1.6511   -0.8340 H   0  0
    1.2198    1.3018    1.8669 H   0  0
    1.2346    2.3288    0.4094 H   0  0
   -1.0518    1.1594    0.5976 H   0  0
   -0.1776    0.5642   -0.8151 H   0  0
    4.0247   -2.6206    0.3447 H   0  0
    3.4557   -1.9037   -1.1797 H   0  0
    5.9721   -1.2978   -0.8730 H   0  0
    4.8506   -0.0353   -1.3748 H   0  0
    3.9628    1.3700    1.8938 H   0  0
    7.6347    0.6136    0.0512 H   0  0
    6.5880    1.7355   -0.8744 H   0  0
    6.5585    1.7634    2.0509 H   0  0
    7.6063    2.9230    1.2301 H   0  0
    3.3467    3.1628    0.2133 H   0  0
    4.4214    2.2269   -0.8632 H   0  0
    3.6118   -0.5909    2.6161 H   0  0
    2.7396   -2.0913    2.5954 H   0  0
    1.9522   -0.5546    2.8176 H   0  0
   -2.8678   -3.5537    2.1467 H   0  0
   -1.7180   -4.9210    1.9978 H   0  0
   -1.1630   -3.3602    2.5619 H   0  0
    0.2221   -0.1999    2.8414 H   0  0
   -0.6009   -1.7059    2.8664 H   0  0
   -1.4872   -0.2249    2.5617 H   0  0
    2.3054    1.7018   -1.7147 H   0  0
    1.3902    0.1882   -1.7946 H   0  0
    3.1119    0.1659   -1.9900 H   0  0
    6.2498   -0.0709    2.5699 H   0  0
    5.2630   -1.4124    2.0170 H   0  0
    6.8784   -1.2222    1.3578 H   0  0
    6.6093    4.9245    0.0911 H   0  0
    5.9949    3.8301   -1.1927 H   0  0
    4.8722    4.9566   -0.3622 H   0  0
    4.3346    4.6230    2.0555 H   0  0
    6.0697    4.4754    2.4935 H   0  0
    4.9221    3.1617    2.9186 H   0  0
   -7.0455    0.6550   -0.1803 H   0  0
  2  3  1  0
  3  4  1  0
  4  5  1  0
  5  6  1  0
  6  1  1  0
  4  7  1  0
  7  8  1  0
  8  9  1  0
  9 10  1  0
 10  5  1  0
  9 11  1  0
 11 12  1  0
 12 13  1  0
 13 14  1  0
 14 10  1  0
 11 15  1  0
 15 16  1  0
 16 17  1  0
 17 18  1  0
 18 12  1  0
 17 19  1  0
 19 20  1  0
 20 21  1  0
 21 22  1  0
 22 18  1  0
 11 23  1  0
  4 24  1  0
 10 25  1  0
 12 26  1  0
 17 27  1  0
 21 28  1  0
 21 29  1  0
  1 30  1  0
 30 31  1  0
 30 32  2  0
  1 33  1  0
  1 34  1  0
  2 35  1  0
  2 36  1  0
  2 37  1  0
  3 38  1  0
  3 39  1  0
  5 40  1  0
  6 41  1  0
  6 42  1  0
  7 43  1  0
  7 44  1  0
  8 45  1  0
  8 46  1  0
  9 47  1  0
 13 48  1  0
 13 49  1  0
 14 50  1  0
 14 51  1  0
 15 52  1  0
 15 53  1  0
 16 54  1  0
 16 55  1  0
 18 56  1  0
 19 57  1  0
 19 58  1  0
 20 59  1  0
 20 60  1  0
 22 61  1  0
 22 62  1  0
 23 63  1  0
 23 64  1  0
 23 65  1  0
 24 66  1  0
 24 67  1  0
 24 68  1  0
 25 69  1  0
 25 70  1  0
 25 71  1  0
 26 72  1  0
 26 73  1  0
 26 74  1  0
 27 75  1  0
 27 76  1  0
 27 77  1  0
 28 78  1  0
 28 79  1  0
 28 80  1  0
 29 81  1  0
 29 82  1  0
 29 83  1  0
 31 84  1  0
M  END
> <Name>
VGR2015_S10

> <Clean Energy>
215.388

$$$$
VGR2015_S11
  SciTegic12132405553D

 79 83  0  0  0  0            999 V2000
   -4.4682   -2.2352   -0.4973 C   0  0
   -4.0238   -3.6425   -0.9999 C   0  0  1  0  0  0
   -3.0321   -4.3596    0.0016 C   0  0
   -1.7597   -3.3508    0.1673 C   0  0  1  0  0  0
   -2.1693   -1.8466    0.6669 C   0  0  2  0  0  0
   -3.1988   -1.3087   -0.3717 C   0  0
   -0.6053   -3.9416    1.0510 C   0  0
    0.6028   -3.0287    0.7385 C   0  0
    0.4645   -1.5438    1.1881 C   0  0  2  0  0  0
   -0.8934   -0.9395    0.7896 C   0  0
    1.6756   -0.6197    0.6181 C   0  0  1  0  0  0
    1.4125    0.8611    0.9712 C   0  0
    0.1526    1.3081    0.9885 C   0  0
   -1.0143    0.4026    0.7706 C   0  0
    3.0922   -1.1317    1.1321 C   0  0
    4.2472   -0.1582    0.7619 C   0  0
    3.9847    1.2439    1.4612 C   0  0  2  0  0  0
    2.5343    1.9226    1.0538 C   0  0  1  0  0  0
    5.2974    2.1326    1.0010 C   0  0
    4.9198    3.5033    1.2423 C   0  0
    3.8023    3.8350    0.1065 C   0  0
    2.8126    2.5728   -0.2190 C   0  0
   -5.2042   -4.4475   -1.2153 O   0  0
    1.6800   -0.6736   -0.9715 C   0  0
    3.8917    1.0928    3.0343 C   0  0
    4.3816    4.1845   -1.2798 C   0  0
    3.0922    5.0837    0.6656 C   0  0
    0.5114   -1.5298    2.7795 C   0  0
   -2.8605   -1.6869    2.0932 C   0  0
   -3.7630   -4.7953    1.3162 C   0  0
   -2.5481   -5.6933   -0.6209 C   0  0
   -5.1442   -1.7954   -1.2424 H   0  0
   -4.9959   -2.3185    0.4596 H   0  0
   -3.5047   -3.4863   -1.9553 H   0  0
   -1.3462   -3.2480   -0.8452 H   0  0
   -2.7172   -1.2738   -1.3584 H   0  0
   -3.5087   -0.2977   -0.0805 H   0  0
   -0.8713   -4.0026    2.1146 H   0  0
   -0.3344   -4.9346    0.6852 H   0  0
    1.5227   -3.4384    1.1715 H   0  0
    0.6717   -3.0697   -0.3509 H   0  0
   -0.0192    2.3456    1.1181 H   0  0
   -1.9622    0.8431    0.6230 H   0  0
    3.0884   -1.1958    2.2086 H   0  0
    3.2774   -2.1351    0.7305 H   0  0
    5.1995   -0.5627    1.1279 H   0  0
    4.3028   -0.0323   -0.3254 H   0  0
    2.2251    2.7635    1.6763 H   0  0
    6.1798    1.7580    1.5357 H   0  0
    5.4809    2.0724   -0.0748 H   0  0
    5.7102    4.2638    1.1954 H   0  0
    4.4912    3.5016    2.2405 H   0  0
    1.9467    2.9694   -0.7641 H   0  0
    3.2935    1.8026   -0.8249 H   0  0
   -4.9788   -5.3192   -1.6105 H   0  0
    1.8552   -1.6995   -1.3115 H   0  0
    0.7149   -0.3249   -1.3575 H   0  0
    2.4705   -0.0341   -1.3697 H   0  0
    4.8182    0.6370    3.4074 H   0  0
    3.7631    2.0825    3.4896 H   0  0
    3.0381    0.4664    3.3160 H   0  0
    3.5593    4.4454   -1.9599 H   0  0
    4.9279    3.3201   -1.6814 H   0  0
    5.0649    5.0392   -1.1829 H   0  0
    2.3132    5.4045   -0.0394 H   0  0
    3.8265    5.8902    0.7956 H   0  0
    2.6350    4.8447    1.6357 H   0  0
    0.4122   -0.5016    3.1466 H   0  0
   -0.2989   -2.1305    3.1856 H   0  0
    1.4584   -1.9480    3.1325 H   0  0
   -3.0683   -0.6241    2.2692 H   0  0
   -2.2012   -2.0564    2.8728 H   0  0
   -3.7887   -2.2198    2.1483 H   0  0
   -3.0510   -5.3080    1.9763 H   0  0
   -4.5732   -5.4876    1.0509 H   0  0
   -4.1893   -3.9627    1.8327 H   0  0
   -3.4132   -6.3463   -0.7931 H   0  0
   -2.0485   -5.4856   -1.5770 H   0  0
   -1.8495   -6.1972    0.0571 H   0  0
  1  2  1  0
  2  3  1  0
  3  4  1  0
  4  5  1  0
  5  6  1  0
  6  1  1  0
  4  7  1  0
  7  8  1  0
  8  9  1  0
  9 10  1  0
 10  5  1  0
  9 11  1  0
 11 12  1  0
 12 13  2  0
 13 14  1  0
 14 10  2  0
 11 15  1  0
 15 16  1  0
 16 17  1  0
 17 18  1  0
 18 12  1  0
 17 19  1  0
 19 20  1  0
 20 21  1  0
 21 22  1  0
 22 18  1  0
 11 24  1  0
 17 25  1  0
 21 26  1  0
 21 27  1  0
  9 28  1  0
  5 29  1  0
  2 23  1  0
  3 30  1  0
  3 31  1  0
  1 32  1  0
  1 33  1  0
  2 34  1  0
  4 35  1  0
  6 36  1  0
  6 37  1  0
  7 38  1  0
  7 39  1  0
  8 40  1  0
  8 41  1  0
 13 42  1  0
 14 43  1  0
 15 44  1  0
 15 45  1  0
 16 46  1  0
 16 47  1  0
 18 48  1  0
 19 49  1  0
 19 50  1  0
 20 51  1  0
 20 52  1  0
 22 53  1  0
 22 54  1  0
 23 55  1  0
 24 56  1  0
 24 57  1  0
 24 58  1  0
 25 59  1  0
 25 60  1  0
 25 61  1  0
 26 62  1  0
 26 63  1  0
 26 64  1  0
 27 65  1  0
 27 66  1  0
 27 67  1  0
 28 68  1  0
 28 69  1  0
 28 70  1  0
 29 71  1  0
 29 72  1  0
 29 73  1  0
 30 74  1  0
 30 75  1  0
 30 76  1  0
 31 77  1  0
 31 78  1  0
 31 79  1  0
M  END
> <Name>
VGR2015_S11

> <Clean Energy>
131.848

$$$$
VGR2015_S12
  SciTegic12132405553D

 83 87  0  0  0  0            999 V2000
   -6.3984   -1.6901   -0.4236 C   0  0
   -6.1795   -3.1546   -0.3429 C   0  0
   -4.9050   -3.6701   -0.8981 C   0  0  1  0  0  0
   -3.7393   -3.0718   -0.0108 C   0  0  2  0  0  0
   -3.8719   -1.4437   -0.1197 C   0  0  1  0  0  0
   -5.2950   -0.9918    0.3986 C   0  0
   -2.3667   -3.4439   -0.6192 C   0  0
   -1.1362   -2.7452    0.0661 C   0  0
   -1.2824   -1.1866   -0.1310 C   0  0  1  0  0  0
   -2.6657   -0.6161    0.6045 C   0  0  1  0  0  0
    0.0883   -0.3593    0.2705 C   0  0  2  0  0  0
   -0.1069    1.1360   -0.0158 C   0  0  1  0  0  0
   -1.4131    1.7204    0.7457 C   0  0
   -2.7604    0.9225    0.2657 C   0  0
    1.3641   -0.8400   -0.7407 C   0  0
    2.5559    0.3307   -1.1177 C   0  0
    2.8923    1.1710    0.0134 C   0  0  2  0  0  0
    1.3721    1.8985    0.5473 C   0  0  1  0  0  0
    4.0140    2.3291   -0.3871 C   0  0
    3.9873    3.2734    0.7644 C   0  0
    2.6220    4.1063    0.6735 C   0  0  2  0  0  0
    1.3995    3.2790    0.0547 C   0  0
   -7.0476   -3.9154    0.0976 O   0  0
    0.4602   -0.6067    1.8376 C   0  0
    3.6158    0.1824    1.0602 C   0  0
    2.7080    5.3073   -0.3136 C   0  0
    2.3899    4.5895    2.1170 C   0  0
   -3.8522   -3.7133    1.4459 C   0  0
   -4.9478   -5.2236   -1.0083 C   0  0
   -2.7914   -0.6770    2.2160 C   0  0
    4.7965   -0.3380    0.4516 O   0  0
   -0.4364    1.4387   -1.6244 C   0  0
    3.7811    6.2085    0.0296 O   0  0
   -6.2501   -1.3708   -1.4646 H   0  0
   -7.3965   -1.4100   -0.0606 H   0  0
   -4.7602   -3.2283   -1.8937 H   0  0
   -3.7911   -1.2089   -1.1896 H   0  0
   -5.4017   -1.2627    1.4556 H   0  0
   -5.4178    0.0916    0.2875 H   0  0
   -2.3580   -3.1091   -1.6653 H   0  0
   -2.2464   -4.5335   -0.5856 H   0  0
   -1.0542   -3.0028    1.1299 H   0  0
   -0.2400   -3.0892   -0.4606 H   0  0
   -1.4201   -1.0171   -1.2013 H   0  0
   -1.5131    2.7879    0.5106 H   0  0
   -1.2914    1.6053    1.8263 H   0  0
   -3.6601    1.3430    0.7318 H   0  0
   -2.8508    1.0300   -0.8083 H   0  0
    1.7378   -1.8062   -0.3757 H   0  0
    0.9687   -0.9877   -1.7543 H   0  0
    3.4285   -0.1531   -1.5744 H   0  0
    2.1473    1.0263   -1.8328 H   0  0
    1.4262    1.9651    1.6406 H   0  0
    4.9721    1.8272   -0.5705 H   0  0
    3.7350    2.9132   -1.2729 H   0  0
    4.8211    3.9809    0.8624 H   0  0
    3.9766    2.6334    1.6294 H   0  0
    0.4837    3.8557    0.2336 H   0  0
    1.5433    3.1634   -1.0261 H   0  0
    1.3347   -0.1062    2.1414 H   0  0
    0.6129   -1.6796    2.0006 H   0  0
   -0.2939   -0.2710    2.4734 H   0  0
    2.9991   -0.6439    1.3416 H   0  0
    3.8923    0.7318    1.9652 H   0  0
    1.7551    5.8536   -0.3015 H   0  0
    2.8898    4.9192   -1.3252 H   0  0
    1.4726    5.1923    2.1551 H   0  0
    2.2875    3.7199    2.7817 H   0  0
    3.2453    5.1984    2.4392 H   0  0
   -4.8176   -3.4622    1.9011 H   0  0
   -3.7604   -4.8015    1.3775 H   0  0
   -3.0608   -3.3623    2.0811 H   0  0
   -4.0080   -5.5951   -1.4373 H   0  0
   -5.7821   -5.5113   -1.6624 H   0  0
   -5.0996   -5.6717   -0.0188 H   0  0
   -3.7607   -0.2683    2.5189 H   0  0
   -2.7022   -1.6694    2.5808 H   0  0
   -2.0407   -0.0864    2.6889 H   0  0
    5.2555   -0.9388    1.0871 H   0  0
    0.3504    1.1186   -2.2795 H   0  0
   -1.3416    0.9339   -1.9480 H   0  0
   -0.5750    2.5184   -1.7595 H   0  0
    3.6288    6.6232    0.9104 H   0  0
  1  2  1  0
  2  3  1  0
  3  4  1  0
  4  5  1  0
  5  6  1  0
  6  1  1  0
  4  7  1  0
  7  8  1  0
  8  9  1  0
  9 10  1  0
 10  5  1  0
  9 11  1  0
 11 12  1  0
 12 13  1  0
 13 14  1  0
 14 10  1  0
 11 15  1  0
 15 16  1  0
 16 17  1  0
 17 18  1  0
 18 12  1  0
 17 19  1  0
 19 20  1  0
 20 21  1  0
 21 22  1  0
 22 18  1  0
 11 24  1  0
 17 25  1  0
 21 26  1  0
 21 27  1  0
  2 23  2  0
  4 28  1  0
  3 29  1  0
 10 30  1  0
 25 31  1  0
 12 32  1  0
 26 33  1  0
  1 34  1  0
  1 35  1  0
  3 36  1  0
  5 37  1  0
  6 38  1  0
  6 39  1  0
  7 40  1  0
  7 41  1  0
  8 42  1  0
  8 43  1  0
  9 44  1  0
 13 45  1  0
 13 46  1  0
 14 47  1  0
 14 48  1  0
 15 49  1  0
 15 50  1  0
 16 51  1  0
 16 52  1  0
 18 53  1  0
 19 54  1  0
 19 55  1  0
 20 56  1  0
 20 57  1  0
 22 58  1  0
 22 59  1  0
 24 60  1  0
 24 61  1  0
 24 62  1  0
 25 63  1  0
 25 64  1  0
 26 65  1  0
 26 66  1  0
 27 67  1  0
 27 68  1  0
 27 69  1  0
 28 70  1  0
 28 71  1  0
 28 72  1  0
 29 73  1  0
 29 74  1  0
 29 75  1  0
 30 76  1  0
 30 77  1  0
 30 78  1  0
 31 79  1  0
 32 80  1  0
 32 81  1  0
 32 82  1  0
 33 83  1  0
M  END
> <Name>
VGR2015_S12

> <Clean Energy>
199.527

$$$$
VGR2015_S14
  SciTegic12132405553D

 66 66  0  0  0  0            999 V2000
   -4.6958    2.2432   -0.5088 C   0  0
   -4.5132    1.2061    0.2995 C   0  0
   -3.3813    0.3142    0.1033 C   0  0
   -2.4935    0.5379   -0.8662 C   0  0
   -2.6696    1.7540   -1.7615 C   0  0
   -3.7473    2.5175   -1.5827 C   0  0
   -1.7662    2.1646   -2.8926 C   0  0
   -0.3555    2.4515   -2.8114 O   0  0
   -2.3160    2.4830   -3.9520 O   0  0
    0.3100    2.4110   -1.5324 C   0  0
    1.7484    2.9271   -1.7504 C   0  0  1  0  0  0
    2.4787    2.9566   -0.3584 C   0  0
    3.9402    3.5273   -0.4267 C   0  0
    3.9616    4.9909   -0.9357 C   0  0
    5.4123    5.4881   -0.9653 C   0  0
    2.5006    2.0312   -2.8218 C   0  0
    2.6531    0.5394   -2.4125 C   0  0
   -1.4452   -0.4847   -1.0451 C   0  0
   -1.4750   -1.6125   -0.1995 O   0  0
   -0.6161   -0.4034   -1.9570 O   0  0
   -0.4107   -2.5453   -0.4460 C   0  0
    1.0059   -2.0381   -0.0043 C   0  0  2  0  0  0
    1.9900   -3.1728   -0.4103 C   0  0
    3.4647   -2.8351   -0.1012 C   0  0
    4.3350   -4.0087   -0.5540 C   0  0
    5.8036   -3.6930   -0.2471 C   0  0
    1.0982   -1.7670    1.5587 C   0  0
    0.1609   -0.6440    2.0595 C   0  0
   -5.5312    2.8808   -0.3678 H   0  0
   -5.2067    1.0150    1.0787 H   0  0
   -3.2791   -0.5397    0.7223 H   0  0
   -3.9015    3.3563   -2.2124 H   0  0
   -0.2017    3.0791   -0.8260 H   0  0
    0.3273    1.4054   -1.1296 H   0  0
    1.6863    3.9498   -2.1429 H   0  0
    1.8973    3.5907    0.3249 H   0  0
    2.5153    1.9354    0.0446 H   0  0
    4.3758    3.5026    0.5813 H   0  0
    4.5490    2.9048   -1.0952 H   0  0
    3.5434    5.0458   -1.9496 H   0  0
    3.3693    5.6229   -0.2596 H   0  0
    5.4368    6.5269   -1.3257 H   0  0
    6.0016    4.8509   -1.6406 H   0  0
    5.8359    5.4399    0.0475 H   0  0
    1.9384    2.0747   -3.7647 H   0  0
    3.5043    2.4434   -2.9891 H   0  0
    3.1840    0.0001   -3.2080 H   0  0
    1.6654    0.0848   -2.2691 H   0  0
    3.2283    0.4618   -1.4790 H   0  0
   -0.3992   -2.7700   -1.5217 H   0  0
   -0.6149   -3.4690    0.1122 H   0  0
    1.2601   -1.1229   -0.5456 H   0  0
    1.7138   -4.0910    0.1258 H   0  0
    1.8964   -3.3419   -1.4920 H   0  0
    3.7587   -1.9254   -0.6435 H   0  0
    3.6063   -2.6829    0.9754 H   0  0
    4.0332   -4.9173   -0.0136 H   0  0
    4.2071   -4.1642   -1.6345 H   0  0
    6.4348   -4.5335   -0.5701 H   0  0
    5.9235   -3.5380    0.8351 H   0  0
    6.1011   -2.7814   -0.7835 H   0  0
    0.8568   -2.6977    2.0914 H   0  0
    2.1203   -1.4646    1.8117 H   0  0
    0.3025   -0.5108    3.1409 H   0  0
   -0.8849   -0.9079    1.8660 H   0  0
    0.4058    0.2936    1.5382 H   0  0
  1  2  2  0
  2  3  1  0
  3  4  2  0
  4  5  1  0
  5  6  2  0
  6  1  1  0
  5  7  1  0
  7  8  1  0
  7  9  2  0
  8 10  1  0
 10 11  1  0
 11 12  1  0
 12 13  1  0
 13 14  1  0
 14 15  1  0
 11 16  1  0
 16 17  1  0
  4 18  1  0
 18 19  1  0
 18 20  2  0
 19 21  1  0
 21 22  1  0
 22 23  1  0
 23 24  1  0
 24 25  1  0
 25 26  1  0
 22 27  1  0
 27 28  1  0
  1 29  1  0
  2 30  1  0
  3 31  1  0
  6 32  1  0
 10 33  1  0
 10 34  1  0
 11 35  1  0
 12 36  1  0
 12 37  1  0
 13 38  1  0
 13 39  1  0
 14 40  1  0
 14 41  1  0
 15 42  1  0
 15 43  1  0
 15 44  1  0
 16 45  1  0
 16 46  1  0
 17 47  1  0
 17 48  1  0
 17 49  1  0
 21 50  1  0
 21 51  1  0
 22 52  1  0
 23 53  1  0
 23 54  1  0
 24 55  1  0
 24 56  1  0
 25 57  1  0
 25 58  1  0
 26 59  1  0
 26 60  1  0
 26 61  1  0
 27 62  1  0
 27 63  1  0
 28 64  1  0
 28 65  1  0
 28 66  1  0
M  END
> <Name>
VGR2015_S14

> <Clean Energy>
14.257

$$$$
VGR2015_S15
  SciTegic12132405553D

 32 34  0  0  0  0            999 V2000
   -3.8075    1.4414   -1.0619 C   0  0
   -4.3783    0.3192   -0.6338 C   0  0
   -3.5734   -0.7616   -0.0529 C   0  0
   -2.2360   -0.6058    0.0423 C   0  0
   -1.6151    0.6404   -0.4639 C   0  0
   -2.3680    1.6068   -0.9775 C   0  0
   -1.3163   -1.6033    0.6461 C   0  0
    0.0799   -1.1645    0.9392 C   0  0
    0.6169   -0.3072   -0.2205 C   0  0  2  0  0  0
   -0.2372    0.7961   -0.4518 O   0  0
    0.7787   -1.1175   -1.5179 C   0  0
   -4.5905    2.4536   -1.6032 O   0  0
   -4.2758   -1.9046    0.3954 O   0  0
   -1.6964   -2.7114    1.0316 O   0  0
    0.5259   -0.5365   -2.6923 C   0  0
    0.6801   -1.2855   -3.9371 C   0  0
    1.0810   -2.5537   -3.9093 C   0  0
    1.3716   -3.2012   -2.6336 C   0  0
    1.2330   -2.5268   -1.4947 C   0  0
    1.2260   -3.2615   -5.0962 O   0  0
   -5.4303    0.2070   -0.7052 H   0  0
   -1.9139    2.4904   -1.3472 H   0  0
    0.7256   -2.0243    1.1625 H   0  0
    0.0403   -0.5097    1.8208 H   0  0
    1.6146    0.0550    0.0608 H   0  0
   -5.5406    2.1779   -1.5897 H   0  0
   -3.6988   -2.5761    0.7747 H   0  0
    0.2090    0.4743   -2.7239 H   0  0
    0.4718   -0.8168   -4.8651 H   0  0
    1.6961   -4.2103   -2.6145 H   0  0
    1.4516   -3.0065   -0.5763 H   0  0
    0.9910   -2.6768   -5.8590 H   0  0
  1  2  2  0
  2  3  1  0
  3  4  2  0
  4  5  1  0
  5  6  2  0
  6  1  1  0
  4  7  1  0
  7  8  1  0
  8  9  1  0
  9 10  1  0
 10  5  1  0
  9 11  1  0
  1 12  1  0
  3 13  1  0
  7 14  2  0
 11 15  2  0
 15 16  1  0
 16 17  2  0
 17 18  1  0
 18 19  2  0
 19 11  1  0
 17 20  1  0
  2 21  1  0
  6 22  1  0
  8 23  1  0
  8 24  1  0
  9 25  1  0
 12 26  1  0
 13 27  1  0
 15 28  1  0
 16 29  1  0
 18 30  1  0
 19 31  1  0
 20 32  1  0
M  END
> <Name>
VGR2015_S15

> <Clean Energy>
28.441

$$$$
VGR2015_S17
  SciTegic12132405553D

 35 37  0  0  0  0            999 V2000
   -3.4286    0.1421    0.6078 C   0  0
   -3.6731   -1.1567    0.4636 C   0  0
   -2.6018   -2.0860    0.0923 C   0  0
   -1.3556   -1.6076   -0.1024 C   0  0
   -1.0984   -0.1565    0.0612 C   0  0
   -2.0890    0.6627    0.3977 C   0  0
   -0.1926   -2.4902   -0.4813 C   0  0
    1.0984   -1.8645    0.0460 C   0  0  2  0  0  0
    1.2592   -0.4238   -0.5338 C   0  0  2  0  0  0
    0.1650    0.3733   -0.1409 O   0  0
    1.3944   -0.3658   -2.0709 C   0  0
    0.6732    0.5246   -2.7536 C   0  0
    0.7765    0.6245   -4.2113 C   0  0
    1.6140   -0.1914   -4.8749 C   0  0
    2.4118   -1.1627   -4.1270 C   0  0
    2.3150   -1.2471   -2.8041 C   0  0
    1.7715   -0.1595   -6.2742 O   0  0
   -0.0226    1.5910   -4.8521 O   0  0
    2.2079   -2.6875   -0.2996 O   0  0
   -4.4579    1.0054    0.9588 O   0  0
   -2.9594   -3.4592   -0.0401 O   0  0
   -4.6551   -1.5252    0.6189 H   0  0
   -1.9013    1.6998    0.5102 H   0  0
   -0.3433   -3.5015   -0.0859 H   0  0
   -0.1401   -2.5548   -1.5756 H   0  0
    1.0368   -1.7977    1.1416 H   0  0
    2.1855   -0.0095   -0.1144 H   0  0
    0.0142    1.1724   -2.2370 H   0  0
    3.0774   -1.8045   -4.6459 H   0  0
    2.9049   -1.9516   -2.2853 H   0  0
    1.2078    0.5127   -6.6885 H   0  0
    0.1080    1.5920   -5.8132 H   0  0
    2.0807   -3.5877    0.0875 H   0  0
   -4.1055    1.9275    1.0215 H   0  0
   -2.2148   -4.0358   -0.2909 H   0  0
  1  2  2  0
  2  3  1  0
  3  4  2  0
  4  5  1  0
  5  6  2  0
  6  1  1  0
  4  7  1  0
  7  8  1  0
  8  9  1  0
  9 10  1  0
 10  5  1  0
  9 11  1  0
 11 12  2  0
 12 13  1  0
 13 14  2  0
 14 15  1  0
 15 16  2  0
 16 11  1  0
 14 17  1  0
 13 18  1  0
  8 19  1  0
  1 20  1  0
  3 21  1  0
  2 22  1  0
  6 23  1  0
  7 24  1  0
  7 25  1  0
  8 26  1  0
  9 27  1  0
 12 28  1  0
 15 29  1  0
 16 30  1  0
 17 31  1  0
 18 32  1  0
 19 33  1  0
 20 34  1  0
 21 35  1  0
M  END
> <Name>
VGR2015_S17

> <Clean Energy>
27.2398

$$$$
VGR2015_S16
  SciTegic12132405553D

 16 16  0  0  0  0            999 V2000
   -1.6303    0.5129   -0.4360 C   0  0
   -1.5497   -0.7385    0.0103 C   0  0
   -0.2750   -1.2627    0.4927 C   0  0
    0.8082   -0.4899    0.4868 C   0  0
    0.7248    0.8867   -0.0029 C   0  0
   -0.4339    1.3739   -0.4451 C   0  0
   -0.4796    2.7748   -0.9341 C   0  0
   -1.6601    3.3691   -1.4180 O   0  0
    0.5585    3.4454   -0.9158 O   0  0
   -0.1945   -2.5687    0.9577 O   0  0
   -2.5569    0.8869   -0.7843 H   0  0
   -2.4120   -1.3558    0.0157 H   0  0
    1.7331   -0.8721    0.8375 H   0  0
    1.5907    1.4985   -0.0056 H   0  0
   -2.4159    2.7478   -1.3859 H   0  0
   -1.0845   -2.9958    0.8915 H   0  0
  1  2  2  0
  2  3  1  0
  3  4  2  0
  4  5  1  0
  5  6  2  0
  6  1  1  0
  6  7  1  0
  7  8  1  0
  7  9  2  0
  3 10  1  0
  1 11  1  0
  2 12  1  0
  4 13  1  0
  5 14  1  0
  8 15  1  0
 10 16  1  0
M  END
> <Name>
VGR2015_S16

> <Clean Energy>
-1.27314

$$$$
VGR2015_M10
  SciTegic12132405553D

 39 41  0  0  0  0            999 V2000
   -4.6140   -0.2328   -0.0375 C   0  0
   -4.5598   -1.0943    0.9766 C   0  0
   -3.4026   -1.9733    1.1272 C   0  0
   -2.4045   -1.9116    0.2496 C   0  0
   -2.4599   -0.9648   -0.8656 C   0  0
   -3.5141   -0.1648   -1.0021 C   0  0
   -1.2199   -2.8007    0.3912 C   0  0
   -0.6608   -3.0974   -0.9974 C   0  0  2  0  0  0
   -0.3075   -1.7534   -1.6759 C   0  0  2  0  0  0
   -1.4324   -0.9035   -1.7718 O   0  0
   -5.7146    0.6014   -0.1813 O   0  0
   -3.3469   -2.8701    2.1858 O   0  0
    0.2967   -1.9318   -3.0576 C   0  0
    0.0331   -1.0236   -3.9919 C   0  0
    0.5930   -1.1444   -5.3359 C   0  0
    1.3843   -2.1714   -5.6630 C   0  0
    1.6884   -3.2105   -4.5941 C   0  0
    1.1668   -3.0730   -3.3776 C   0  0
    2.5011   -4.3240   -4.8145 O   0  0
    0.2840   -0.1581   -6.2793 O   0  0
   -1.6407   -3.7872   -1.7758 O   0  0
    1.8850   -2.1970   -7.0179 O   0  0
    2.7329   -3.2854   -7.3941 C   0  0
   -5.3566   -1.1428    1.6746 H   0  0
   -3.5587    0.5206   -1.8097 H   0  0
   -0.4487   -2.2648    0.9611 H   0  0
   -1.4886   -3.7152    0.9366 H   0  0
    0.2359   -3.7229   -0.9024 H   0  0
    0.4424   -1.2604   -1.0430 H   0  0
   -5.5920    1.1712   -0.9806 H   0  0
   -4.1647   -2.7809    2.7343 H   0  0
   -0.5906   -0.1988   -3.7600 H   0  0
    1.3886   -3.7979   -2.6393 H   0  0
    2.5591   -4.8608   -3.9864 H   0  0
    0.7212   -0.3521   -7.1399 H   0  0
   -1.8727   -4.6379   -1.3299 H   0  0
    3.0327   -3.1677   -8.4451 H   0  0
    2.1891   -4.2337   -7.2736 H   0  0
    3.6295   -3.2908   -6.7572 H   0  0
 22 23  1  0
 16 22  1  0
  1  2  2  0
  2  3  1  0
  3  4  2  0
  4  5  1  0
  5  6  2  0
  6  1  1  0
  4  7  1  0
  7  8  1  0
  8  9  1  0
  9 10  1  0
 10  5  1  0
  1 11  1  0
  3 12  1  0
  9 13  1  0
 13 14  2  0
 14 15  1  0
 15 16  2  0
 16 17  1  0
 17 18  2  0
 18 13  1  0
 17 19  1  0
 15 20  1  0
  8 21  1  0
  2 24  1  0
  6 25  1  0
  7 26  1  0
  7 27  1  0
  8 28  1  0
  9 29  1  0
 11 30  1  0
 12 31  1  0
 14 32  1  0
 18 33  1  0
 19 34  1  0
 20 35  1  0
 21 36  1  0
 23 37  1  0
 23 38  1  0
 23 39  1  0
M  END
> <Name>
VGR2015_M10

> <Clean Energy>
25.1834

$$$$
VGR2015_S18
  SciTegic12132405553D

 19 19  0  0  0  0            999 V2000
   -1.6481   -0.6764    0.5892 C   0  0
   -2.1181   -2.0494    0.0978 C   0  0
   -1.0949   -3.1768    0.2874 C   0  0
    0.2536   -3.0915   -0.4431 C   0  0
    1.1312   -1.8908   -0.0530 C   0  0
    0.6415   -0.6155   -0.4882 N   0  0
   -0.5443   -0.0766   -0.2246 C   0  0
   -0.7575    1.0438   -0.6998 O   0  0
   -2.4954    0.0219    0.5461 H   0  0
   -1.3208   -0.8034    1.6312 H   0  0
   -2.9967   -2.3284    0.6959 H   0  0
   -2.4120   -1.9749   -0.9585 H   0  0
   -0.8847   -3.2554    1.3632 H   0  0
   -1.5788   -4.1048   -0.0472 H   0  0
    0.8055   -4.0008   -0.1675 H   0  0
    0.0967   -3.0840   -1.5308 H   0  0
    1.2583   -1.8946    1.0390 H   0  0
    2.1119   -2.0228   -0.5304 H   0  0
    1.2608   -0.0702   -1.0411 H   0  0
  1  2  1  0
  2  3  1  0
  3  4  1  0
  4  5  1  0
  5  6  1  0
  6  7  1  0
  7  1  1  0
  7  8  2  0
  1  9  1  0
  1 10  1  0
  2 11  1  0
  2 12  1  0
  3 13  1  0
  3 14  1  0
  4 15  1  0
  4 16  1  0
  5 17  1  0
  5 18  1  0
  6 19  1  0
M  END
> <Name>
VGR2015_S18

> <Clean Energy>
27.7473

$$$$
VGR2015_S19
  SciTegic12132405553D

 36 38  0  0  0  0            999 V2000
   -4.0272    0.1120    0.4359 C   0  0
   -4.1700   -1.0066   -0.2723 C   0  0
   -2.9903   -1.7519   -0.7061 C   0  0
   -1.7748   -1.3106   -0.3924 C   0  0
   -1.6148   -0.0844    0.3900 C   0  0
   -2.6894    0.5945    0.7835 C   0  0
   -0.5642   -2.0576   -0.8302 C   0  0
    0.5770   -1.0632   -1.0430 C   0  0  2  0  0  0
    0.8031   -0.3072    0.2984 C   0  0  2  0  0  0
   -0.3641    0.3692    0.7157 O   0  0
    1.9530    0.6824    0.2540 C   0  0
    3.1033    0.3979   -0.3647 C   0  0
    4.1885    1.3772   -0.3775 C   0  0
    4.0400    2.5497    0.2330 C   0  0
    2.7854    2.8611    0.9176 C   0  0
    1.7936    1.9739    0.9248 C   0  0
    5.0801    3.4740    0.2181 O   0  0
    5.3780    1.0812   -1.0287 O   0  0
    0.2205   -0.1445   -2.0887 O   0  0
   -5.1480    0.8222    0.8454 O   0  0
   -3.1408   -2.9182   -1.4445 O   0  0
    2.6250    4.0817    1.5628 O   0  0
   -5.1393   -1.3558   -0.5230 H   0  0
   -2.5766    1.4846    1.3483 H   0  0
   -0.2698   -2.7452   -0.0255 H   0  0
   -0.7805   -2.6446   -1.7328 H   0  0
    1.4859   -1.6084   -1.3300 H   0  0
    1.0551   -1.0721    1.0447 H   0  0
    3.2408   -0.5345   -0.8467 H   0  0
    0.8857    2.2023    1.4224 H   0  0
    4.8118    4.2856    0.7135 H   0  0
    5.3178    0.1772   -1.4259 H   0  0
    0.9512    0.5002   -2.2398 H   0  0
   -4.8623    1.6203    1.3553 H   0  0
   -4.1035   -3.0962   -1.5834 H   0  0
    1.7248    4.1227    1.9707 H   0  0
  1  2  2  0
  2  3  1  0
  3  4  2  0
  4  5  1  0
  5  6  2  0
  6  1  1  0
  4  7  1  0
  7  8  1  0
  8  9  1  0
  9 10  1  0
 10  5  1  0
  9 11  1  0
 11 12  2  0
 12 13  1  0
 13 14  2  0
 14 15  1  0
 15 16  2  0
 16 11  1  0
 14 17  1  0
 13 18  1  0
  8 19  1  0
  1 20  1  0
  3 21  1  0
 15 22  1  0
  2 23  1  0
  6 24  1  0
  7 25  1  0
  7 26  1  0
  8 27  1  0
  9 28  1  0
 12 29  1  0
 16 30  1  0
 17 31  1  0
 18 32  1  0
 19 33  1  0
 20 34  1  0
 21 35  1  0
 22 36  1  0
M  END
> <Name>
VGR2015_S19

> <Clean Energy>
20.8236

$$$$
VGR2015_S3
  SciTegic12132405553D

128132  0  0  0  0            999 V2000
    3.2565    3.4275   -6.7840 C   0  0
    4.3278    2.8196   -7.7308 C   0  0  1  0  0  0
    4.2468    1.2494   -7.9144 C   0  0
    4.1439    0.6053   -6.4446 C   0  0  1  0  0  0
    2.9566    1.1283   -5.5101 C   0  0  2  0  0  0
    3.1540    2.6974   -5.4237 C   0  0
    4.2995   -0.9444   -6.3519 C   0  0
    4.4581   -1.4499   -4.8855 C   0  0
    3.3001   -1.0573   -3.8746 C   0  0  2  0  0  0
    3.1118    0.5208   -4.0295 C   0  0  2  0  0  0
    3.6014   -1.3944   -2.3008 C   0  0  1  0  0  0
    2.4011   -0.9935   -1.4794 C   0  0
    1.7718    0.1585   -1.8153 C   0  0
    2.1485    1.1434   -2.9405 C   0  0
    3.9938   -2.9242   -2.0899 C   0  0
    2.8835   -3.8318   -1.5210 C   0  0
    2.2491   -3.3028   -0.1926 C   0  0  2  0  0  0
    1.7347   -1.8164   -0.4066 C   0  0  1  0  0  0
    3.2872   -3.3909    0.9841 C   0  0
    2.7617   -2.8102    2.3196 C   0  0
    2.3653   -1.3147    2.1838 C   0  0  2  0  0  0
    1.4048   -1.0438    0.9633 C   0  0  2  0  0  0
    3.0929    0.8393   -8.8977 C   0  0
    5.5789    0.8032   -8.6285 C   0  0
    1.5178    0.8109   -6.0855 C   0  0
    2.0294   -1.8791   -4.3316 C   0  0
    4.8225   -0.5671   -1.7167 C   0  0
    3.6100   -0.3800    2.1985 C   0  0
   -0.0988   -1.1480    1.3858 C   0  0
    1.0633   -4.3056    0.0966 C   0  0
    4.4468    3.6445   -8.9116 O   0  0
    3.4860    4.1655   -9.7384 C   0  0
    2.3508    3.6535   -9.8625 O   0  0
    3.7653    5.4490  -10.4075 C   0  0
    3.7467    5.4187  -11.9603 C   0  0
    4.1864    6.7965  -12.5296 C   0  0
    4.2820    6.8635  -14.0758 C   0  0
    4.9583    8.1857  -14.5393 C   0  0
    5.1365    8.2850  -16.0763 C   0  0
    5.9886    9.5102  -16.5121 C   0  0
    6.1891    9.5547  -18.0520 C   0  0
    7.0902   10.7290  -18.5211 C   0  0
    7.2369   10.8020  -20.0659 C   0  0
    8.1237   11.9907  -20.5317 C   0  0
    8.1923   12.1038  -22.0803 C   0  0
    9.0375   13.3072  -22.5768 C   0  0
    9.0582   13.4398  -24.1247 C   0  0
    9.8925   14.6530  -24.5968 C   0  0
    3.5959    4.4376   -6.5550 H   0  0
    2.2969    3.2737   -7.2776 H   0  0
    5.3308    2.9529   -7.3254 H   0  0
    5.0662    0.9853   -6.0050 H   0  0
    2.2484    3.0885   -4.9600 H   0  0
    4.1214    2.8521   -4.9459 H   0  0
    3.3615   -1.3640   -6.7155 H   0  0
    5.2356   -1.1842   -6.8562 H   0  0
    4.4280   -2.5371   -4.9587 H   0  0
    5.3540   -0.9534   -4.5128 H   0  0
    4.1049    0.8923   -3.7771 H   0  0
    0.9215    0.2997   -1.1482 H   0  0
    1.2130    1.3708   -3.4516 H   0  0
    2.7103    1.9397   -2.4523 H   0  0
    4.1959   -3.3231   -3.0840 H   0  0
    4.7753   -2.9326   -1.3301 H   0  0
    2.0854   -3.8174   -2.2633 H   0  0
    3.3751   -4.7710   -1.2675 H   0  0
    0.8059   -1.9354   -0.9645 H   0  0
    3.4470   -4.4531    1.1691 H   0  0
    4.1253   -2.7554    0.6979 H   0  0
    1.8430   -3.3514    2.5461 H   0  0
    3.5994   -2.8431    3.0162 H   0  0
    1.7949   -1.0717    3.0803 H   0  0
    1.5988   -0.0003    0.7151 H   0  0
    2.2197    0.5290   -8.3238 H   0  0
    2.8311    1.6908   -9.5258 H   0  0
    3.4271    0.0136   -9.5258 H   0  0
    6.3275    0.5525   -7.8770 H   0  0
    5.3825   -0.0696   -9.2512 H   0  0
    5.9479    1.6182   -9.2512 H   0  0
    0.8222    0.6575   -5.2605 H   0  0
    1.1781    1.6474   -6.6964 H   0  0
    1.5615   -0.0908   -6.6964 H   0  0
    1.4879   -2.2293   -3.4529 H   0  0
    1.3788   -1.2400   -4.9285 H   0  0
    2.3455   -2.7346   -4.9285 H   0  0
    4.7888   -0.5899   -0.6274 H   0  0
    5.7580   -1.0083   -2.0606 H   0  0
    4.7596    0.4653   -2.0606 H   0  0
    3.8928   -0.1676    3.2296 H   0  0
    4.4388   -0.8706    1.6882 H   0  0
    3.3700    0.5528    1.6882 H   0  0
   -0.1711   -1.1530    2.4733 H   0  0
   -0.6476   -0.2939    0.9890 H   0  0
   -0.5246   -2.0696    0.9890 H   0  0
    0.9342   -4.4147    1.1734 H   0  0
    0.1440   -3.9174   -0.3420 H   0  0
    1.2934   -5.2765   -0.3420 H   0  0
    4.7876    5.6892  -10.1156 H   0  0
    2.9445    6.0976  -10.1015 H   0  0
    4.5048    4.6981  -12.2670 H   0  0
    2.7075    5.2759  -12.2567 H   0  0
    3.3952    7.4942  -12.2551 H   0  0
    5.2021    6.9541  -12.1667 H   0  0
    4.9465    6.0540  -14.3777 H   0  0
    3.2572    6.8942  -14.4458 H   0  0
    4.2699    8.9858  -14.2674 H   0  0
    5.9658    8.1688  -14.1236 H   0  0
    5.7050    7.4025  -16.3697 H   0  0
    4.1392    8.4511  -16.4835 H   0  0
    5.4065   10.3949  -16.2542 H   0  0
    6.9783    9.3638  -16.0794 H   0  0
    6.7271    8.6427  -18.3107 H   0  0
    5.2036    9.7452  -18.4771 H   0  0
    6.5733   11.6417  -18.2245 H   0  0
    8.0867   10.5166  -18.1338 H   0  0
    7.7667    9.8963  -20.3613 H   0  0
    6.2380   11.0003  -20.4544 H   0  0
    7.6261   12.8956  -20.1831 H   0  0
    9.1363   11.7628  -20.1989 H   0  0
    8.7151   11.2107  -22.4226 H   0  0
    7.1723   12.2988  -22.4115 H   0  0
    8.5353   14.2003  -22.2050 H   0  0
   10.0646   13.0956  -22.2792 H   0  0
    9.5721   12.5549  -24.5002 H   0  0
    8.0310   13.6431  -24.4276 H   0  0
   10.2664   15.1966  -23.7291 H   0  0
   10.7330   14.3045  -25.1970 H   0  0
    9.2664   15.3131  -25.1970 H   0  0
  2  1  1  0
  2  3  1  0
  4  3  1  0
  5  4  1  0
  5  6  1  0
  6  1  1  0
  4  7  1  0
  7  8  1  0
  9  8  1  0
 10  9  1  0
  5 10  1  0
  9 11  1  0
 11 12  1  0
 12 13  2  0
 13 14  1  0
 10 14  1  0
 11 15  1  0
 15 16  1  0
 17 16  1  0
 18 17  1  0
 18 12  1  0
 17 19  1  0
 19 20  1  0
 21 20  1  0
 22 21  1  0
 18 22  1  0
  3 23  1  0
  3 24  1  0
  5 25  1  0
  9 26  1  0
 11 27  1  0
 21 28  1  0
 22 29  1  0
 17 30  1  0
  2 31  1  0
 31 32  1  0
 32 33  2  0
 34 35  1  0
 35 36  1  0
 36 37  1  0
 37 38  1  0
 38 39  1  0
 39 40  1  0
 40 41  1  0
 41 42  1  0
 42 43  1  0
 43 44  1  0
 44 45  1  0
 45 46  1  0
 46 47  1  0
 47 48  1  0
 32 34  1  0
  1 49  1  0
  1 50  1  0
  2 51  1  0
  4 52  1  0
  6 53  1  0
  6 54  1  0
  7 55  1  0
  7 56  1  0
  8 57  1  0
  8 58  1  0
 10 59  1  0
 13 60  1  0
 14 61  1  0
 14 62  1  0
 15 63  1  0
 15 64  1  0
 16 65  1  0
 16 66  1  0
 18 67  1  0
 19 68  1  0
 19 69  1  0
 20 70  1  0
 20 71  1  0
 21 72  1  0
 22 73  1  0
 23 74  1  0
 23 75  1  0
 23 76  1  0
 24 77  1  0
 24 78  1  0
 24 79  1  0
 25 80  1  0
 25 81  1  0
 25 82  1  0
 26 83  1  0
 26 84  1  0
 26 85  1  0
 27 86  1  0
 27 87  1  0
 27 88  1  0
 28 89  1  0
 28 90  1  0
 28 91  1  0
 29 92  1  0
 29 93  1  0
 29 94  1  0
 30 95  1  0
 30 96  1  0
 30 97  1  0
 34 98  1  0
 34 99  1  0
 35100  1  0
 35101  1  0
 36102  1  0
 36103  1  0
 37104  1  0
 37105  1  0
 38106  1  0
 38107  1  0
 39108  1  0
 39109  1  0
 40110  1  0
 40111  1  0
 41112  1  0
 41113  1  0
 42114  1  0
 42115  1  0
 43116  1  0
 43117  1  0
 44118  1  0
 44119  1  0
 45120  1  0
 45121  1  0
 46122  1  0
 46123  1  0
 47124  1  0
 47125  1  0
 48126  1  0
 48127  1  0
 48128  1  0
M  END
> <Name>
VGR2015_S3

> <Clean Energy>
128.531

$$$$
VGR2015_S13
  SciTegic12132405553D

101105  0  0  0  0            999 V2000
   -3.2795   -7.9918    4.2786 C   0  0
   -4.4032   -8.6549    3.4034 C   0  0  1  0  0  0
   -3.8457   -9.9737    2.7892 C   0  0
   -2.6157   -9.6559    1.9767 C   0  0
   -1.4839   -8.9076    2.6436 C   0  0  2  0  0  0
   -2.0698   -7.6600    3.3650 C   0  0
   -2.5352  -10.1269    0.7318 C   0  0
   -1.3471   -9.8584   -0.1414 C   0  0
   -0.0510   -9.5433    0.6475 C   0  0  2  0  0  0
   -0.3779   -8.4056    1.5891 C   0  0  2  0  0  0
    1.0267   -9.0640   -0.3524 C   0  0  1  0  0  0
    2.3359   -8.6498    0.3188 C   0  0  2  0  0  0
    1.9934   -7.4457    1.2527 C   0  0
    0.9497   -7.8657    2.3306 C   0  0
    1.4830  -10.1128   -1.3748 C   0  0
    2.8336   -9.5212   -1.8969 C   0  0
    3.0637   -8.2233   -1.0055 C   0  0  2  0  0  0
   -5.5826   -8.8502    4.2514 O   0  0
    3.1012   -9.7872    1.1456 C   0  0
    4.6083   -7.7873   -1.0644 C   0  0  2  0  0  0
   -0.8726   -9.9384    3.6893 C   0  0
    5.0863   -6.6051   -0.1490 C   0  0
    4.9740   -7.4118   -2.5348 C   0  0
    4.4768   -5.1897   -0.3586 C   0  0
    5.1778   -4.0385    0.5476 C   0  0  2  0  0  0
    5.0571   -4.1143    2.2036 C   0  0
    3.5809   -4.1391    2.6668 C   0  0
    4.5273   -2.7107    0.0202 C   0  0
    5.7497   -5.3326    2.8696 C   0  0
    5.1933   -1.4381    0.6268 C   0  0
   -6.5720  -10.1492   -0.4081 O   0  0
   -7.8594   -9.9044    0.1703 C   0  0
   -7.7879  -10.1984    1.6662 C   0  0  1  0  0  0
   -6.8050   -9.3289    2.2722 O   0  0
   -6.6288   -9.6579    3.6603 C   0  0  2  0  0  0
   -7.9471   -9.4163    4.4217 C   0  0  2  0  0  0
   -7.7902   -9.7451    5.7987 O   0  0
   -9.0277  -10.3007    3.8040 C   0  0  1  0  0  0
  -10.2752  -10.0838    4.4647 O   0  0
   -9.1555   -9.9640    2.3194 C   0  0  2  0  0  0
  -10.1364  -10.8106    1.7199 O   0  0
   -3.6589   -7.0556    4.7102 H   0  0
   -2.9888   -8.6744    5.0868 H   0  0
   -4.6781   -7.9815    2.5799 H   0  0
   -3.5716  -10.6191    3.6333 H   0  0
   -4.5827  -10.4798    2.1515 H   0  0
   -1.2818   -7.1518    3.9336 H   0  0
   -2.4538   -6.9815    2.5905 H   0  0
   -3.3539  -10.6719    0.3356 H   0  0
   -1.2079  -10.6789   -0.8569 H   0  0
   -1.5984   -8.9539   -0.7102 H   0  0
    0.3106  -10.4092    1.2108 H   0  0
   -0.7951   -7.6162    0.9501 H   0  0
    0.6611   -8.1804   -0.8911 H   0  0
    2.9060   -7.0498    1.7105 H   0  0
    1.5199   -6.6632    0.6433 H   0  0
    1.3826   -8.6539    2.9470 H   0  0
    0.7027   -7.0060    2.9667 H   0  0
    0.7496  -10.4377   -2.1253 H   0  0
    1.7758  -10.9825   -0.7819 H   0  0
    3.5665  -10.2753   -1.5843 H   0  0
    2.9312   -9.3489   -2.9771 H   0  0
    2.4176   -7.4204   -1.3855 H   0  0
    2.4907  -10.1158    1.9935 H   0  0
    3.3288  -10.6584    0.5261 H   0  0
    4.0442   -9.3688    1.5232 H   0  0
    5.1951   -8.6599   -0.7513 H   0  0
   -0.4843  -10.8156    3.1576 H   0  0
   -0.0598   -9.4669    4.2516 H   0  0
   -1.6373  -10.2662    4.4002 H   0  0
    4.9005   -6.9071    0.8660 H   0  0
    6.1683   -6.5102   -0.3089 H   0  0
    4.7630   -8.2425   -3.2151 H   0  0
    4.3901   -6.5347   -2.8480 H   0  0
    6.0446   -7.1736   -2.5872 H   0  0
    4.6564   -4.9069   -1.4022 H   0  0
    3.3947   -5.2108   -0.1738 H   0  0
    6.2464   -4.0177    0.2919 H   0  0
    5.5468   -3.2279    2.6186 H   0  0
    3.5512   -4.1416    3.7653 H   0  0
    3.0498   -3.2561    2.2944 H   0  0
    3.0970   -5.0411    2.2902 H   0  0
    4.6641   -2.6726   -1.0687 H   0  0
    3.4538   -2.7074    0.2448 H   0  0
    5.6543   -5.2456    3.9601 H   0  0
    5.2799   -6.2574    2.5552 H   0  0
    6.8143   -5.3449    2.5950 H   0  0
    5.0756   -1.4235    1.7174 H   0  0
    6.2647   -1.4357    0.3755 H   0  0
    4.7180   -0.5432    0.2045 H   0  0
   -5.8955   -9.5721    0.0273 H   0  0
   -8.1459   -8.8574    0.0144 H   0  0
   -8.6036  -10.5655   -0.2979 H   0  0
   -7.4898  -11.2481    1.8072 H   0  0
   -6.3439  -10.7178    3.7294 H   0  0
   -8.2304   -8.3581    4.3264 H   0  0
   -7.5363  -10.6957    5.8798 H   0  0
   -8.7321  -11.3531    3.9084 H   0  0
  -10.1829  -10.3008    5.4239 H   0  0
   -9.4485   -8.9132    2.1911 H   0  0
  -11.0112  -10.6603    2.1544 H   0  0
  2  1  1  0
  2  3  1  0
  3  4  1  0
  5  4  1  0
  5  6  1  0
  6  1  1  0
  4  7  2  0
  7  8  1  0
  9  8  1  0
  9 10  1  0
 10  5  1  0
  9 11  1  0
 11 12  1  0
 12 13  1  0
 13 14  1  0
 10 14  1  0
 15 16  1  0
 17 16  1  0
 12 17  1  0
 12 19  1  0
 11 15  1  0
 17 20  1  0
  5 21  1  0
  2 18  1  0
 20 22  1  0
 20 23  1  0
 22 24  1  0
 25 24  1  0
 25 26  1  0
 26 27  1  0
 25 28  1  0
 26 29  1  0
 28 30  1  0
 31 32  1  0
 33 32  1  0
 33 34  1  0
 34 35  1  0
 35 36  1  0
 36 37  1  0
 36 38  1  0
 38 39  1  0
 38 40  1  0
 33 40  1  0
 40 41  1  0
 35 18  1  0
  1 42  1  0
  1 43  1  0
  2 44  1  0
  3 45  1  0
  3 46  1  0
  6 47  1  0
  6 48  1  0
  7 49  1  0
  8 50  1  0
  8 51  1  0
  9 52  1  0
 10 53  1  0
 11 54  1  0
 13 55  1  0
 13 56  1  0
 14 57  1  0
 14 58  1  0
 15 59  1  0
 15 60  1  0
 16 61  1  0
 16 62  1  0
 17 63  1  0
 19 64  1  0
 19 65  1  0
 19 66  1  0
 20 67  1  0
 21 68  1  0
 21 69  1  0
 21 70  1  0
 22 71  1  0
 22 72  1  0
 23 73  1  0
 23 74  1  0
 23 75  1  0
 24 76  1  0
 24 77  1  0
 25 78  1  0
 26 79  1  0
 27 80  1  0
 27 81  1  0
 27 82  1  0
 28 83  1  0
 28 84  1  0
 29 85  1  0
 29 86  1  0
 29 87  1  0
 30 88  1  0
 30 89  1  0
 30 90  1  0
 31 91  1  0
 32 92  1  0
 32 93  1  0
 33 94  1  0
 35 95  1  0
 36 96  1  0
 37 97  1  0
 38 98  1  0
 39 99  1  0
 40100  1  0
 41101  1  0
M  END
> <Name>
VGR2015_S13

> <Clean Energy>
114.162

$$$$
VGR2011_M1
  SciTegic12132405553D

 80 84  0  0  0  0            999 V2000
   -4.3670   -1.5511    0.0307 C   0  0
   -4.1118   -3.0243   -0.2790 C   0  0
   -2.7676   -3.6916    0.0216 C   0  0
   -1.5876   -2.6433   -0.3288 C   0  0  1  0  0  0
   -1.8335   -1.1468    0.4279 C   0  0  2  0  0  0
   -3.1193   -0.6437   -0.2905 C   0  0
   -0.0406   -3.2327   -0.2590 C   0  0
    0.6062   -2.7863    0.9573 C   0  0
    0.8430   -1.1276    0.8443 C   0  0  2  0  0  0
   -0.5183   -0.4092    0.0518 C   0  0  2  0  0  0
    2.1737   -0.5182   -0.0349 C   0  0  1  0  0  0
    2.1789    1.0929    0.1548 C   0  0  2  0  0  0
    0.8634    1.7090   -0.4035 C   0  0
   -0.4293    1.1479    0.2665 C   0  0  1  0  0  0
    3.5628   -1.1228    0.5590 C   0  0
    4.8134   -0.4705   -0.1430 C   0  0
    4.7971    1.0676    0.0840 C   0  0  2  0  0  0
    3.4758    1.6908   -0.5530 C   0  0  2  0  0  0
    5.7700    1.7660   -0.7998 C   0  0
    5.2992    3.2703   -0.8803 C   0  0
    3.8095    3.2006   -0.3242 C   0  0  1  0  0  0
    2.9633    4.3237   -0.8510 C   0  0
    2.6307    4.3752   -2.1396 C   0  0
    2.4977    5.3919    0.0816 C   0  0
    5.0576    1.3456    1.6504 C   0  0
   -1.5117    1.8150   -0.3728 O   0  0
   -2.1312   -1.0048    2.0061 C   0  0
    2.1286   -0.8892   -1.6085 C   0  0
    1.1431   -0.7792    2.4063 C   0  0
   -2.7710   -4.2732    1.4687 C   0  0
   -2.6472   -4.9415   -0.8710 C   0  0
   -5.0497   -3.7224   -0.6776 O   0  0
   -5.2562   -1.2038   -0.5119 H   0  0
   -4.5859   -1.4821    1.0986 H   0  0
   -1.6894   -2.4738   -1.4088 H   0  0
   -3.3392    0.3894    0.0041 H   0  0
   -2.9319   -0.6837   -1.3720 H   0  0
   -0.0328   -4.3055   -0.4632 H   0  0
    0.5426   -2.7635   -0.9943 H   0  0
   -0.1292   -3.0280    1.7302 H   0  0
    1.5608   -3.2665    1.2067 H   0  0
   -0.4848   -0.6070   -1.0222 H   0  0
    2.2492    1.3253    1.2142 H   0  0
    0.8805    2.7876   -0.2470 H   0  0
    0.8064    1.5044   -1.4774 H   0  0
   -0.4484    1.3762    1.3393 H   0  0
    3.6411   -0.9150    1.6189 H   0  0
    3.5718   -2.2102    0.4102 H   0  0
    5.7544   -0.8899    0.2357 H   0  0
    4.7449   -0.6674   -1.2139 H   0  0
    3.4537    1.4754   -1.6255 H   0  0
    6.8454    1.5826   -0.6761 H   0  0
    5.4626    1.3650   -1.7756 H   0  0
    5.8554    4.0437   -0.3339 H   0  0
    5.3350    3.4540   -1.9623 H   0  0
    3.8493    3.3124    0.7421 H   0  0
    2.9608    3.6176   -2.8056 H   0  0
    2.0341    5.1739   -2.4995 H   0  0
    2.0564    6.2309   -0.4746 H   0  0
    3.3382    5.7154    0.7117 H   0  0
    1.7480    4.9534    0.7560 H   0  0
    5.0848    2.4141    1.8753 H   0  0
    6.0273    0.9098    1.9239 H   0  0
    4.2724    0.8836    2.2584 H   0  0
   -1.4243    2.7889   -0.2317 H   0  0
   -2.2547    0.0562    2.2571 H   0  0
   -1.3565   -1.4174    2.5831 H   0  0
   -3.0369   -1.5318    2.2830 H   0  0
    2.9845   -0.4729   -2.1404 H   0  0
    1.2193   -0.5029   -2.0733 H   0  0
    2.1507   -1.9764   -1.7188 H   0  0
    1.2822    0.2928    2.5494 H   0  0
    2.0419   -1.3031    2.7379 H   0  0
    0.3394   -1.1000    3.0358 H   0  0
   -1.8214   -4.7935    1.6524 H   0  0
   -3.6005   -4.9869    1.5606 H   0  0
   -2.8998   -3.4970    2.2039 H   0  0
   -1.7018   -5.4583   -0.6704 H   0  0
   -2.6846   -4.6379   -1.9261 H   0  0
   -3.4826   -5.6213   -0.6544 H   0  0
  1  2  1  0
  2  3  1  0
  3  4  1  0
  4  5  1  0
  5  6  1  0
  6  1  1  0
  4  7  1  0
  7  8  1  0
  8  9  1  0
  9 10  1  0
 10  5  1  0
  9 11  1  0
 11 12  1  0
 12 13  1  0
 13 14  1  0
 14 10  1  0
 11 15  1  0
 15 16  1  0
 16 17  1  0
 17 18  1  0
 18 12  1  0
 17 19  1  0
 19 20  1  0
 20 21  1  0
 21 18  1  0
 21 22  1  0
 22 23  2  0
 22 24  1  0
 17 25  1  0
 14 26  1  0
  5 27  1  0
 11 28  1  0
  9 29  1  0
  3 30  1  0
  3 31  1  0
  2 32  2  0
  1 33  1  0
  1 34  1  0
  4 35  1  0
  6 36  1  0
  6 37  1  0
  7 38  1  0
  7 39  1  0
  8 40  1  0
  8 41  1  0
 10 42  1  0
 12 43  1  0
 13 44  1  0
 13 45  1  0
 14 46  1  0
 15 47  1  0
 15 48  1  0
 16 49  1  0
 16 50  1  0
 18 51  1  0
 19 52  1  0
 19 53  1  0
 20 54  1  0
 20 55  1  0
 21 56  1  0
 23 57  1  0
 23 58  1  0
 24 59  1  0
 24 60  1  0
 24 61  1  0
 25 62  1  0
 25 63  1  0
 25 64  1  0
 26 65  1  0
 27 66  1  0
 27 67  1  0
 27 68  1  0
 28 69  1  0
 28 70  1  0
 28 71  1  0
 29 72  1  0
 29 73  1  0
 29 74  1  0
 30 75  1  0
 30 76  1  0
 30 77  1  0
 31 78  1  0
 31 79  1  0
 31 80  1  0
M  END
> <Name>
VGR2011_M1

> <Clean Energy>
224.848

$$$$
VGR2011_M2
  SciTegic12132405553D

 67 71  0  0  0  0            999 V2000
   -5.2309   -1.5166   -0.0645 C   0  0
   -5.0915   -2.8719   -0.5624 C   0  0
   -3.8870   -3.4239   -0.6829 C   0  0
   -2.6630   -2.6345   -0.3122 C   0  0
   -2.8321   -1.2774    0.2420 C   0  0
   -4.0633   -0.7605    0.3509 C   0  0
   -1.4381   -3.1446   -0.5035 C   0  0
   -0.2182   -2.3862   -0.2353 C   0  0
   -0.2314   -1.1574    0.2931 C   0  0
   -1.6248   -0.4943    0.7444 C   0  0  1  0  0  0
    1.1468   -0.3363    0.4668 C   0  0  2  0  0  0
    0.9708    1.1602    0.0783 C   0  0  1  0  0  0
   -0.3147    1.8060    0.8180 C   0  0
   -1.6590    1.0333    0.3653 C   0  0
    2.4265   -0.9196   -0.4331 C   0  0
    3.5937    0.1992   -0.8494 C   0  0
    3.9531    1.1723    0.2120 C   0  0  2  0  0  0
    2.4655    1.9518    0.6421 C   0  0  1  0  0  0
    1.4919   -0.4978    2.0318 C   0  0
    4.9750    2.2418   -0.2930 C   0  0
    4.3193    3.0793   -1.4080 C   0  0
    2.9788    3.7720   -1.1502 C   0  0  1  0  0  0
    2.5809    3.5022    0.3101 C   0  0
    3.1303    5.2717   -1.4053 C   0  0
    4.8615    3.1723   -2.5140 O   0  0
    4.7173    0.4158    1.3443 C   0  0
    0.6338    1.3072   -1.5398 C   0  0
   -1.8400   -0.5458    2.3060 C   0  0
   -3.7950   -4.8380   -1.2151 C   0  0
   -6.2270   -3.5951   -0.9181 O   0  0
   -6.3537   -1.0117    0.0429 O   0  0
   -4.2048    0.2050    0.7613 H   0  0
   -1.3261   -4.1098   -0.9090 H   0  0
    0.6934   -2.8312   -0.5078 H   0  0
   -0.1961    1.7388    1.9049 H   0  0
   -0.3938    2.8626    0.5304 H   0  0
   -2.5531    1.4938    0.8039 H   0  0
   -1.7402    1.1114   -0.7066 H   0  0
    2.7816   -1.8445    0.0405 H   0  0
    2.0728   -1.1599   -1.4447 H   0  0
    4.4732   -0.3159   -1.2559 H   0  0
    3.1827    0.8003   -1.6292 H   0  0
    2.4531    1.9543    1.7363 H   0  0
    2.3763   -0.0098    2.3169 H   0  0
    1.6044   -1.5671    2.2509 H   0  0
    0.7189   -0.1002    2.6376 H   0  0
    5.1966    2.8997    0.5613 H   0  0
    5.8976    1.7622   -0.6456 H   0  0
    2.2424    3.4090   -1.8572 H   0  0
    3.3926    3.9268    0.9184 H   0  0
    1.6458    4.0076    0.5826 H   0  0
    2.1707    5.7726   -1.2152 H   0  0
    3.4318    5.4361   -2.4492 H   0  0
    3.8976    5.6785   -0.7319 H   0  0
    4.9832    1.1296    2.1353 H   0  0
    5.6335   -0.0166    0.9205 H   0  0
    4.1276   -0.3794    1.7657 H   0  0
    0.4933    2.3682   -1.7733 H   0  0
   -0.2680    0.7661   -1.8104 H   0  0
    1.4234    0.9259   -2.1616 H   0  0
   -2.8065   -0.0920    2.5569 H   0  0
   -1.0739   -0.0039    2.8297 H   0  0
   -1.8343   -1.5938    2.6341 H   0  0
   -3.1028   -5.4196   -0.5896 H   0  0
   -3.3514   -4.7981   -2.2199 H   0  0
   -4.7842   -5.3106   -1.2643 H   0  0
   -7.0332   -3.0441   -0.7701 H   0  0
  1  2  1  0
  2  3  2  0
  3  4  1  0
  4  5  1  0
  5  6  2  0
  6  1  1  0
  4  7  2  0
  7  8  1  0
  8  9  2  0
  9 10  1  0
 10  5  1  0
  9 11  1  0
 11 12  1  0
 12 13  1  0
 13 14  1  0
 14 10  1  0
 11 15  1  0
 15 16  1  0
 16 17  1  0
 17 18  1  0
 18 12  1  0
 11 19  1  0
 17 20  1  0
 20 21  1  0
 21 22  1  0
 22 23  1  0
 23 18  1  0
 22 24  1  0
 21 25  2  0
 17 26  1  0
 12 27  1  0
 10 28  1  0
  3 29  1  0
  2 30  1  0
  1 31  2  0
  6 32  1  0
  7 33  1  0
  8 34  1  0
 13 35  1  0
 13 36  1  0
 14 37  1  0
 14 38  1  0
 15 39  1  0
 15 40  1  0
 16 41  1  0
 16 42  1  0
 18 43  1  0
 19 44  1  0
 19 45  1  0
 19 46  1  0
 20 47  1  0
 20 48  1  0
 22 49  1  0
 23 50  1  0
 23 51  1  0
 24 52  1  0
 24 53  1  0
 24 54  1  0
 26 55  1  0
 26 56  1  0
 26 57  1  0
 27 58  1  0
 27 59  1  0
 27 60  1  0
 28 61  1  0
 28 62  1  0
 28 63  1  0
 29 64  1  0
 29 65  1  0
 29 66  1  0
 30 67  1  0
M  END
> <Name>
VGR2011_M2

> <Clean Energy>
205.236

$$$$
VGR2011_M3
  SciTegic12132405553D

 68 72  0  0  0  0            999 V2000
   -5.1001   -0.9701   -0.3442 C   0  0
   -5.0293   -2.2150   -0.8307 C   0  0
   -3.7287   -2.8862   -0.9377 C   0  0
   -2.5947   -2.2553   -0.5493 C   0  0
   -2.6936   -0.8892   -0.0073 C   0  0
   -3.8925   -0.2993    0.0818 C   0  0
   -1.2313   -2.8798   -0.6604 C   0  0
   -0.0297   -2.1086   -0.4041 C   0  0
   -0.0485   -0.8620    0.0830 C   0  0
   -1.4453   -0.1565    0.5106 C   0  0  1  0  0  0
    1.3432   -0.0591    0.2618 C   0  0  2  0  0  0
    1.2039    1.4368   -0.1336 C   0  0  1  0  0  0
   -0.0710    2.1137    0.5910 C   0  0
   -1.4262    1.3745    0.1293 C   0  0
    2.6232   -0.6704   -0.6230 C   0  0
    3.8185    0.4222   -1.0301 C   0  0
    4.1851    1.3884    0.0337 C   0  0  2  0  0  0
    2.7092    2.2005    0.4420 C   0  0  1  0  0  0
    1.6667   -0.2199    1.8315 C   0  0
    5.2364    2.4340   -0.4585 C   0  0
    4.6151    3.2813   -1.5869 C   0  0
    3.2826    3.9987   -1.3556 C   0  0  1  0  0  0
    2.8589    3.7465    0.1000 C   0  0
    3.4644    5.4931   -1.6208 C   0  0
    5.1795    3.3631   -2.6826 O   0  0
    4.9168    0.6151    1.1766 C   0  0
    0.8875    1.5827   -1.7559 C   0  0
   -1.6768   -0.2062    2.0684 C   0  0
   -3.7397   -4.2873   -1.5126 C   0  0
   -6.1670   -2.9296   -1.2588 O   0  0
   -6.3106   -0.2607   -0.2109 O   0  0
   -1.0629   -4.0311   -1.0748 O   0  0
   -3.9796    0.6730    0.4878 H   0  0
    0.8860   -2.5644   -0.6394 H   0  0
    0.0352    2.0480    1.6793 H   0  0
   -0.1226    3.1705    0.2986 H   0  0
   -2.3096    1.8633    0.5578 H   0  0
   -1.4950    1.4524   -0.9433 H   0  0
    2.9552   -1.5999   -0.1415 H   0  0
    2.2757   -0.9085   -1.6372 H   0  0
    4.6916   -0.1128   -1.4246 H   0  0
    3.4294    1.0300   -1.8165 H   0  0
    2.6856    2.2121    1.5360 H   0  0
    2.5564    0.2531    2.1258 H   0  0
    1.7569   -1.2902    2.0565 H   0  0
    0.8932    0.1942    2.4259 H   0  0
    5.4597    3.0896    0.3973 H   0  0
    6.1536    1.9340   -0.7965 H   0  0
    2.5506    3.6425   -2.0708 H   0  0
    3.6703    4.1605    0.7160 H   0  0
    1.9299    4.2713    0.3564 H   0  0
    2.5111    6.0123   -1.4496 H   0  0
    3.7846    5.6432   -2.6614 H   0  0
    4.2285    5.8923   -0.9393 H   0  0
    5.1880    1.3231    1.9710 H   0  0
    5.8288    0.1620    0.7654 H   0  0
    4.3042   -0.1665    1.5904 H   0  0
    0.7724    2.6453   -1.9962 H   0  0
   -0.0231    1.0594   -2.0331 H   0  0
    1.6753    1.1813   -2.3677 H   0  0
   -2.6300    0.2787    2.3119 H   0  0
   -0.8984    0.3079    2.6006 H   0  0
   -1.7092   -1.2549    2.3927 H   0  0
   -3.1073   -4.3038   -2.4118 H   0  0
   -4.7585   -4.6147   -1.7516 H   0  0
   -3.2701   -4.9705   -0.7908 H   0  0
   -6.9815   -2.4168   -1.1558 H   0  0
   -7.0727   -0.7767   -0.5132 H   0  0
  1  2  2  0
  2  3  1  0
  3  4  2  0
  4  5  1  0
  5  6  2  0
  6  1  1  0
  4  7  1  0
  7  8  1  0
  8  9  2  0
  9 10  1  0
 10  5  1  0
  9 11  1  0
 11 12  1  0
 12 13  1  0
 13 14  1  0
 14 10  1  0
 11 15  1  0
 15 16  1  0
 16 17  1  0
 17 18  1  0
 18 12  1  0
 11 19  1  0
 17 20  1  0
 20 21  1  0
 21 22  1  0
 22 23  1  0
 23 18  1  0
 22 24  1  0
 21 25  2  0
 17 26  1  0
 12 27  1  0
 10 28  1  0
  3 29  1  0
  2 30  1  0
  1 31  1  0
  7 32  2  0
  6 33  1  0
  8 34  1  0
 13 35  1  0
 13 36  1  0
 14 37  1  0
 14 38  1  0
 15 39  1  0
 15 40  1  0
 16 41  1  0
 16 42  1  0
 18 43  1  0
 19 44  1  0
 19 45  1  0
 19 46  1  0
 20 47  1  0
 20 48  1  0
 22 49  1  0
 23 50  1  0
 23 51  1  0
 24 52  1  0
 24 53  1  0
 24 54  1  0
 26 55  1  0
 26 56  1  0
 26 57  1  0
 27 58  1  0
 27 59  1  0
 27 60  1  0
 28 61  1  0
 28 62  1  0
 28 63  1  0
 29 64  1  0
 29 65  1  0
 29 66  1  0
 30 67  1  0
 31 68  1  0
M  END
> <Name>
VGR2011_M3

> <Clean Energy>
209.13

$$$$
VGR2011_M5
  SciTegic12132405553D

 80 84  0  0  0  0            999 V2000
   -4.5177   -1.7771    0.1330 C   0  0
   -4.3191   -3.1966   -0.3996 C   0  0
   -3.0215   -3.9769   -0.1610 C   0  0
   -1.7829   -2.9550   -0.2903 C   0  0  1  0  0  0
   -1.9938   -1.5831    0.6760 C   0  0  2  0  0  0
   -3.2146   -0.9010    0.0020 C   0  0
   -0.2667   -3.6265   -0.2537 C   0  0
    0.3602   -3.3747    1.0365 C   0  0
    0.6545   -1.7232    1.1616 C   0  0  2  0  0  0
   -0.6559   -0.8657    0.4441 C   0  0  2  0  0  0
    2.0256   -1.0403    0.4118 C   0  0  1  0  0  0
    2.0549    0.5354    0.7976 C   0  0  2  0  0  0
    0.7640    1.2440    0.2904 C   0  0
   -0.5536    0.6287    0.8603 C   0  0
    3.3838   -1.7424    0.9704 C   0  0
    4.6670   -1.0390    0.3920 C   0  0
    4.6711    0.4650    0.7904 C   0  0  2  0  0  0
    3.3855    1.1829    0.1930 C   0  0  2  0  0  0
    5.6933    1.2315    0.0204 C   0  0
    5.2397    2.7409    0.0555 C   0  0
    3.7413    2.6539    0.5821 C   0  0  1  0  0  0
    2.9219    3.8295    0.1226 C   0  0
    2.6286    3.9709   -1.1721 C   0  0
    2.4376    4.8303    1.1327 C   0  0
    4.8777    0.5682    2.3845 C   0  0
   -2.3486   -1.6723    2.2490 C   0  0
    2.0228   -1.2114   -1.1963 C   0  0
    0.9122   -1.5938    2.7633 C   0  0
   -3.1158   -4.7799    1.1700 C   0  0
   -2.9175   -5.0680   -1.2438 C   0  0
   -5.2686   -3.7683   -0.9450 O   0  0
    1.7913    5.9498    0.5133 O   0  0
   -5.3650   -1.3009   -0.3778 H   0  0
   -4.7778   -1.8646    1.1904 H   0  0
   -1.8285   -2.6139   -1.3332 H   0  0
   -3.3924    0.0868    0.4475 H   0  0
   -2.9827   -0.7842   -1.0651 H   0  0
   -0.2971   -4.6610   -0.6034 H   0  0
    0.3613   -3.0907   -0.9003 H   0  0
   -0.4082   -3.6921    1.7478 H   0  0
    1.2890   -3.9216    1.2431 H   0  0
   -0.5971   -0.9141   -0.6457 H   0  0
    2.0976    0.6376    1.8804 H   0  0
    0.7973    2.2948    0.5800 H   0  0
    0.7265    1.1769   -0.8018 H   0  0
   -0.5990    0.7221    1.9530 H   0  0
   -1.3839    1.1882    0.4145 H   0  0
    3.4310   -1.6628    2.0505 H   0  0
    3.3794   -2.8043    0.6931 H   0  0
    5.5869   -1.5194    0.7497 H   0  0
    4.6317   -1.1106   -0.6963 H   0  0
    3.3898    1.0883   -0.8963 H   0  0
    6.7610    1.0162    0.1610 H   0  0
    5.4173    0.9334   -1.0004 H   0  0
    5.8103    3.4677    0.6481 H   0  0
    5.2775    2.9994   -1.0112 H   0  0
    3.7598    2.6696    1.6565 H   0  0
    2.9742    3.2554   -1.8764 H   0  0
    2.0499    4.7948   -1.4996 H   0  0
    1.7396    4.3173    1.8096 H   0  0
    3.2874    5.1520    1.7499 H   0  0
    4.9159    1.6055    2.7240 H   0  0
    5.8282    0.0841    2.6439 H   0  0
    4.0615    0.0604    2.9106 H   0  0
   -2.4355   -0.6591    2.6604 H   0  0
   -1.6122   -2.2098    2.7802 H   0  0
   -3.2873   -2.1914    2.4095 H   0  0
    2.9029   -0.7534   -1.6479 H   0  0
    1.1362   -0.7494   -1.6350 H   0  0
    2.0273   -2.2767   -1.4403 H   0  0
    1.0778   -0.5546    3.0504 H   0  0
    1.7843   -2.1863    3.0488 H   0  0
    0.0785   -1.9681    3.3210 H   0  0
   -2.2004   -5.3726    1.3007 H   0  0
   -3.9810   -5.4541    1.1146 H   0  0
   -3.2406   -4.1250    2.0157 H   0  0
   -2.0071   -5.6597   -1.0974 H   0  0
   -2.8924   -4.5924   -2.2346 H   0  0
   -3.7921   -5.7288   -1.1760 H   0  0
    2.4327    6.4285   -0.0703 H   0  0
  1  2  1  0
  2  3  1  0
  3  4  1  0
  4  5  1  0
  5  6  1  0
  6  1  1  0
  4  7  1  0
  7  8  1  0
  8  9  1  0
  9 10  1  0
 10  5  1  0
  9 11  1  0
 11 12  1  0
 12 13  1  0
 13 14  1  0
 14 10  1  0
 11 15  1  0
 15 16  1  0
 16 17  1  0
 17 18  1  0
 18 12  1  0
 17 19  1  0
 19 20  1  0
 20 21  1  0
 21 18  1  0
 21 22  1  0
 22 23  2  0
 22 24  1  0
 17 25  1  0
  5 26  1  0
 11 27  1  0
  9 28  1  0
  3 29  1  0
  3 30  1  0
  2 31  2  0
 24 32  1  0
  1 33  1  0
  1 34  1  0
  4 35  1  0
  6 36  1  0
  6 37  1  0
  7 38  1  0
  7 39  1  0
  8 40  1  0
  8 41  1  0
 10 42  1  0
 12 43  1  0
 13 44  1  0
 13 45  1  0
 14 46  1  0
 14 47  1  0
 15 48  1  0
 15 49  1  0
 16 50  1  0
 16 51  1  0
 18 52  1  0
 19 53  1  0
 19 54  1  0
 20 55  1  0
 20 56  1  0
 21 57  1  0
 23 58  1  0
 23 59  1  0
 24 60  1  0
 24 61  1  0
 25 62  1  0
 25 63  1  0
 25 64  1  0
 26 65  1  0
 26 66  1  0
 26 67  1  0
 27 68  1  0
 27 69  1  0
 27 70  1  0
 28 71  1  0
 28 72  1  0
 28 73  1  0
 29 74  1  0
 29 75  1  0
 29 76  1  0
 30 77  1  0
 30 78  1  0
 30 79  1  0
 32 80  1  0
M  END
> <Name>
VGR2011_M5

> <Clean Energy>
224.74

$$$$
VGR2011_M6
  SciTegic12132405553D

 80 84  0  0  0  0            999 V2000
   -4.8682   -1.3498   -0.4541 C   0  0
   -4.7488   -2.8304   -0.4193 C   0  0
   -3.4777   -3.4116   -0.9186 C   0  0  1  0  0  0
   -2.3374   -2.9240    0.0567 C   0  0  2  0  0  0
   -2.3572   -1.2761    0.0083 C   0  0  1  0  0  0
   -3.7748   -0.7513    0.4591 C   0  0
   -0.9492   -3.3589   -0.4743 C   0  0
    0.1164   -2.7016    0.3601 C   0  0
    0.2262   -1.1940    0.1843 C   0  0  1  0  0  0
   -1.1384   -0.5431    0.8366 C   0  0  1  0  0  0
    1.6618   -0.5215    0.6713 C   0  0  2  0  0  0
    1.5709    1.0792    0.3370 C   0  0  1  0  0  0
    0.2627    1.7081    1.0725 C   0  0
   -1.1162    0.9962    0.5376 C   0  0
    2.9318   -1.1186   -0.1399 C   0  0
    4.2698   -0.4631    0.4077 C   0  0
    4.3939    1.1047    0.3128 C   0  0  2  0  0  0
    3.0402    1.7946    0.9580 C   0  0  1  0  0  0
    1.9237   -0.8520    2.2459 C   0  0
    4.6911    1.7129   -1.1770 C   0  0
    4.9924    3.3185   -1.0533 C   0  0
    3.7783    4.1193   -0.5158 C   0  0
    3.3433    3.4195    0.8881 C   0  0
    5.6864    1.3678    1.1756 C   0  0
    1.2993    1.2562   -1.2262 C   0  0
   -1.3459   -0.6429    2.4256 C   0  0
   -3.6079   -4.9540   -1.0871 C   0  0
   -5.6889   -3.5466   -0.0590 O   0  0
    4.1590    5.5683   -0.2219 C   0  0
    2.7617    4.2541   -1.6273 C   0  0
    0.9631   -3.3759    0.9548 O   0  0
   -2.5740   -3.5943    1.4818 C   0  0
   -4.6365   -1.0045   -1.4713 H   0  0
   -5.8671   -1.0181   -0.1402 H   0  0
   -3.2437   -2.9471   -1.8865 H   0  0
   -2.1956   -1.0119   -1.0454 H   0  0
   -3.9607   -1.0507    1.4976 H   0  0
   -3.8222    0.3411    0.3823 H   0  0
   -0.8526   -4.4517   -0.4943 H   0  0
   -0.8792   -2.9350   -1.4855 H   0  0
    0.0984   -1.0099   -0.8784 H   0  0
    0.3529    1.5813    2.1569 H   0  0
    0.2175    2.7801    0.8386 H   0  0
   -2.0073    1.4623    0.9762 H   0  0
   -1.1584    1.1330   -0.5365 H   0  0
    2.9851   -2.2012    0.0322 H   0  0
    2.8306   -0.9352   -1.2123 H   0  0
    4.3149   -0.7092    1.4557 H   0  0
    5.1500   -0.9080   -0.0742 H   0  0
    2.9791    1.5330    2.0111 H   0  0
    2.8518   -0.4191    2.6020 H   0  0
    1.9724   -1.9372    2.3821 H   0  0
    1.1663   -0.4624    2.8553 H   0  0
    5.5947    1.2265   -1.5663 H   0  0
    3.8783    1.5297   -1.8573 H   0  0
    5.8117    3.4366   -0.3539 H   0  0
    5.2972    3.7504   -2.0156 H   0  0
    4.2227    3.5660    1.5176 H   0  0
    2.5007    3.9646    1.3332 H   0  0
    5.9169    2.4271    1.2696 H   0  0
    6.5371    0.8552    0.7072 H   0  0
    5.5238    0.9575    2.1815 H   0  0
    1.1613    2.2774   -1.4265 H   0  0
    0.4058    0.7549   -1.5615 H   0  0
    2.1206    0.8692   -1.8122 H   0  0
   -2.3004   -0.1782    2.6947 H   0  0
   -0.5769   -0.1167    2.9496 H   0  0
   -1.3420   -1.6545    2.7590 H   0  0
   -2.6676   -5.3695   -1.4727 H   0  0
   -4.4163   -5.1675   -1.7995 H   0  0
   -3.8470   -5.4233   -0.1250 H   0  0
    3.2780    6.1071    0.1530 H   0  0
    4.5182    6.0452   -1.1444 H   0  0
    4.9537    5.5876    0.5367 H   0  0
    1.8918    4.8205   -1.2686 H   0  0
    2.4707    3.3298   -1.9799 H   0  0
    3.2311    4.7942   -2.4604 H   0  0
   -1.8008   -3.3073    2.1718 H   0  0
   -2.5444   -4.6842    1.3862 H   0  0
   -3.5476   -3.2957    1.8884 H   0  0
  1  2  1  0
  2  3  1  0
  3  4  1  0
  4  5  1  0
  5  6  1  0
  6  1  1  0
  4  7  1  0
  7  8  1  0
  8  9  1  0
  9 10  1  0
 10  5  1  0
  9 11  1  0
 11 12  1  0
 12 13  1  0
 13 14  1  0
 14 10  1  0
 11 15  1  0
 15 16  1  0
 16 17  1  0
 17 18  1  0
 18 12  1  0
 11 19  1  0
 17 20  1  0
 20 21  1  0
 21 22  1  0
 22 23  1  0
 23 18  1  0
 17 24  1  0
 12 25  1  0
 10 26  1  0
  3 27  1  0
  2 28  2  0
 22 29  1  0
 22 30  1  0
  8 31  2  0
  4 32  1  0
  1 33  1  0
  1 34  1  0
  3 35  1  0
  5 36  1  0
  6 37  1  0
  6 38  1  0
  7 39  1  0
  7 40  1  0
  9 41  1  0
 13 42  1  0
 13 43  1  0
 14 44  1  0
 14 45  1  0
 15 46  1  0
 15 47  1  0
 16 48  1  0
 16 49  1  0
 18 50  1  0
 19 51  1  0
 19 52  1  0
 19 53  1  0
 20 54  1  0
 20 55  1  0
 21 56  1  0
 21 57  1  0
 23 58  1  0
 23 59  1  0
 24 60  1  0
 24 61  1  0
 24 62  1  0
 25 63  1  0
 25 64  1  0
 25 65  1  0
 26 66  1  0
 26 67  1  0
 26 68  1  0
 27 69  1  0
 27 70  1  0
 27 71  1  0
 29 72  1  0
 29 73  1  0
 29 74  1  0
 30 75  1  0
 30 76  1  0
 30 77  1  0
 32 78  1  0
 32 79  1  0
 32 80  1  0
M  END
> <Name>
VGR2011_M6

> <Clean Energy>
119.094

$$$$
VGR2011_M7
  SciTegic12132405553D

 50 49  0  0  0  0            999 V2000
   -4.5849   -0.2411   -0.1754 C   0  0
   -4.3034   -1.8197   -0.4824 C   0  0
   -3.1024   -2.6510    0.1187 C   0  0
   -1.7260   -2.3417   -0.5146 C   0  0
   -2.3714    1.0191    0.5018 C   0  0
   -3.5665    0.9293   -0.4779 C   0  0
   -1.4922    2.2001    0.1108 C   0  0
   -0.3170    2.2740    1.1027 C   0  0
    0.6266    3.4409    0.7459 C   0  0
   -0.1113    4.7436    0.8440 C   0  0
   -0.1512    5.6014   -0.2485 O   0  0
   -0.6861    5.0506    1.8942 O   0  0
   -0.6641   -3.2223    0.1303 C   0  0
    0.6799   -2.8999   -0.5185 C   0  0
    1.7701   -3.7604    0.1143 C   0  0
    3.1066   -3.4196   -0.5440 C   0  0
    4.2097   -4.2720    0.0841 C   0  0
    5.5478   -3.9234   -0.5805 C   0  0
   -5.4732   -0.0212   -0.7837 H   0  0
   -4.8579   -0.1398    0.8843 H   0  0
   -5.2143   -2.3140   -0.1170 H   0  0
   -4.2504   -1.9542   -1.5718 H   0  0
   -3.0779   -2.5156    1.2090 H   0  0
   -3.2895   -3.7101   -0.1062 H   0  0
   -1.7690   -2.5564   -1.5909 H   0  0
   -1.4540   -1.3371   -0.3806 H   0  0
   -2.7521    1.1727    1.5206 H   0  0
   -1.7875    0.1461    0.4861 H   0  0
   -4.1087    1.8768   -0.3529 H   0  0
   -3.2220    0.8491   -1.5184 H   0  0
   -1.1078    2.0506   -0.9077 H   0  0
   -2.0852    3.1230    0.1489 H   0  0
   -0.7061    2.4151    2.1208 H   0  0
    0.2457    1.3305    1.0544 H   0  0
    1.4279    3.4311    1.4981 H   0  0
    1.0425    3.3083   -0.2629 H   0  0
    0.3548    5.2017   -0.9994 H   0  0
   -0.6149   -3.0120    1.2077 H   0  0
   -0.9104   -4.2811   -0.0283 H   0  0
    0.6265   -3.1074   -1.5961 H   0  0
    0.9154   -1.8377   -0.3608 H   0  0
    1.8259   -3.5507    1.1916 H   0  0
    1.5404   -4.8233   -0.0422 H   0  0
    3.0488   -3.6279   -1.6215 H   0  0
    3.3313   -2.3552   -0.3878 H   0  0
    4.2663   -4.0618    1.1616 H   0  0
    3.9848   -5.3363   -0.0721 H   0  0
    6.3483   -4.5310   -0.1352 H   0  0
    5.7650   -2.8569   -0.4247 H   0  0
    5.4842   -4.1310   -1.6583 H   0  0
  1  2  1  0
  2  3  1  0
  3  4  1  0
  5  6  1  0
  6  1  1  0
  5  7  1  0
  7  8  1  0
  8  9  1  0
  9 10  1  0
 10 11  1  0
 10 12  2  0
  4 13  1  0
 13 14  1  0
 14 15  1  0
 15 16  1  0
 16 17  1  0
 17 18  1  0
  1 19  1  0
  1 20  1  0
  2 21  1  0
  2 22  1  0
  3 23  1  0
  3 24  1  0
  4 25  1  0
  4 26  1  0
  5 27  1  0
  5 28  1  0
  6 29  1  0
  6 30  1  0
  7 31  1  0
  7 32  1  0
  8 33  1  0
  8 34  1  0
  9 35  1  0
  9 36  1  0
 11 37  1  0
 13 38  1  0
 13 39  1  0
 14 40  1  0
 14 41  1  0
 15 42  1  0
 15 43  1  0
 16 44  1  0
 16 45  1  0
 17 46  1  0
 17 47  1  0
 18 48  1  0
 18 49  1  0
 18 50  1  0
M  END
> <Name>
VGR2011_M7

> <Clean Energy>
23.2655

$$$$
VGR2011_M8
  SciTegic12132405553D

 82 86  0  0  0  0            999 V2000
   -5.2791   -1.4402   -0.7132 C   0  0
   -5.2184   -2.8862   -0.3937 C   0  0
   -3.9453   -3.5837   -0.6945 C   0  0  1  0  0  0
   -2.8375   -2.9470    0.2392 C   0  0  2  0  0  0
   -2.7908   -1.3540   -0.1253 C   0  0  1  0  0  0
   -4.2136   -0.7130    0.1337 C   0  0
   -1.4495   -3.5209   -0.1185 C   0  0
   -0.2484   -2.8220    0.6148 C   0  0
   -0.1992   -1.3050    0.1654 C   0  0  1  0  0  0
   -1.5975   -0.5213    0.6182 C   0  0  1  0  0  0
    1.2041   -0.5480    0.6561 C   0  0  2  0  0  0
    1.1609    0.9569    0.0479 C   0  0  1  0  0  0
   -0.1854    1.7142    0.5556 C   0  0
   -1.5191    0.9318    0.0547 C   0  0
    2.5266   -1.2881    0.0531 C   0  0
    3.8653   -0.5937    0.5593 C   0  0
    4.0744    0.9180    0.2030 C   0  0  2  0  0  0
    2.5773    1.7553    0.5657 C   0  0  1  0  0  0
    1.3705   -0.5961    2.2669 C   0  0
    4.3544    1.3718   -1.1459 C   0  0
    4.6428    3.0341   -1.0902 C   0  0
    3.6872    3.9805   -0.0856 C   0  0  2  0  0  0
    2.4419    3.2939   -0.1611 C   0  0
    5.4276    1.1890    1.0198 C   0  0
    1.0326    0.9061   -1.5906 C   0  0
   -1.8986   -0.3202    2.1887 C   0  0
   -4.1301   -5.1263   -0.5779 C   0  0
   -6.2044   -3.4963    0.0333 O   0  0
    3.6992    5.4061   -0.6956 C   0  0
    4.0417    4.1799    1.4631 C   0  0
    5.0167    6.0036   -0.6757 O   0  0
   -3.1862   -3.3355    1.7484 C   0  0
   -4.9810   -1.3009   -1.7617 H   0  0
   -6.2795   -1.0269   -0.5269 H   0  0
   -3.6416   -3.3200   -1.7171 H   0  0
   -2.5646   -1.2979   -1.1986 H   0  0
   -4.4666   -0.8041    1.1967 H   0  0
   -4.2162    0.3454   -0.1499 H   0  0
   -1.4452   -4.5967    0.0945 H   0  0
   -1.2809   -3.3619   -1.1922 H   0  0
   -0.3262   -2.9088    1.7060 H   0  0
    0.6636   -3.3227    0.2759 H   0  0
   -0.1822   -1.3095   -0.9224 H   0  0
   -0.1780    1.7841    1.6481 H   0  0
   -0.2099    2.7240    0.1347 H   0  0
   -2.4256    1.4788    0.3408 H   0  0
   -1.4832    0.8750   -1.0276 H   0  0
    2.5431   -2.3238    0.4113 H   0  0
    2.4965   -1.2924   -1.0396 H   0  0
    3.8462   -0.6560    1.6397 H   0  0
    4.7423   -1.1516    0.2063 H   0  0
    2.5412    1.7716    1.6589 H   0  0
    2.2834   -0.1041    2.5887 H   0  0
    1.4037   -1.6417    2.5957 H   0  0
    0.5841   -0.1068    2.7559 H   0  0
    5.2189    0.8742   -1.6035 H   0  0
    3.5192    1.1755   -1.7300 H   0  0
    5.6887    3.3172   -0.9053 H   0  0
    4.3956    3.2825   -2.1306 H   0  0
    1.6094    3.8404    0.2959 H   0  0
    2.2746    3.2149   -1.2358 H   0  0
    5.7737    2.2081    0.9952 H   0  0
    6.2163    0.5471    0.6053 H   0  0
    5.2555    0.9149    2.0693 H   0  0
    0.9883    1.9207   -1.9924 H   0  0
    0.1420    0.3802   -1.9155 H   0  0
    1.8817    0.3937   -2.0241 H   0  0
   -2.8527    0.2029    2.3101 H   0  0
   -1.1484    0.2792    2.6541 H   0  0
   -1.9406   -1.2479    2.7034 H   0  0
   -3.1884   -5.6361   -0.8202 H   0  0
   -4.9067   -5.4464   -1.2857 H   0  0
   -4.4406   -5.3970    0.4386 H   0  0
    3.3734    5.3322   -1.7425 H   0  0
    2.9982    6.0448   -0.1409 H   0  0
    3.2745    4.8216    1.9165 H   0  0
    5.0175    4.6730    1.5420 H   0  0
    4.0840    3.2547    2.0173 H   0  0
    5.3360    6.1469    0.2430 H   0  0
   -2.4454   -2.9532    2.4240 H   0  0
   -3.1972   -4.4244    1.8551 H   0  0
   -4.1685   -2.9375    2.0292 H   0  0
  1  2  1  0
  2  3  1  0
  3  4  1  0
  4  5  1  0
  5  6  1  0
  6  1  1  0
  4  7  1  0
  7  8  1  0
  8  9  1  0
  9 10  1  0
 10  5  1  0
  9 11  1  0
 11 12  1  0
 12 13  1  0
 13 14  1  0
 14 10  1  0
 11 15  1  0
 15 16  1  0
 16 17  1  0
 17 18  1  0
 18 12  1  0
 11 19  1  0
 17 20  1  0
 20 21  1  0
 21 22  1  0
 22 23  1  0
 23 18  1  0
 17 24  1  0
 12 25  1  0
 10 26  1  0
  3 27  1  0
  2 28  2  0
 22 29  1  0
 22 30  1  0
 29 31  1  0
  4 32  1  0
  1 33  1  0
  1 34  1  0
  3 35  1  0
  5 36  1  0
  6 37  1  0
  6 38  1  0
  7 39  1  0
  7 40  1  0
  8 41  1  0
  8 42  1  0
  9 43  1  0
 13 44  1  0
 13 45  1  0
 14 46  1  0
 14 47  1  0
 15 48  1  0
 15 49  1  0
 16 50  1  0
 16 51  1  0
 18 52  1  0
 19 53  1  0
 19 54  1  0
 19 55  1  0
 20 56  1  0
 20 57  1  0
 21 58  1  0
 21 59  1  0
 23 60  1  0
 23 61  1  0
 24 62  1  0
 24 63  1  0
 24 64  1  0
 25 65  1  0
 25 66  1  0
 25 67  1  0
 26 68  1  0
 26 69  1  0
 26 70  1  0
 27 71  1  0
 27 72  1  0
 27 73  1  0
 29 74  1  0
 29 75  1  0
 30 76  1  0
 30 77  1  0
 30 78  1  0
 31 79  1  0
 32 80  1  0
 32 81  1  0
 32 82  1  0
M  END
> <Name>
VGR2011_M8

> <Clean Energy>
147.516

$$$$
VGR2011_M9
  SciTegic12132405553D

 82 86  0  0  0  0            999 V2000
   -4.5298   -1.3543    0.0861 C   0  0
   -4.4566   -2.8617   -0.3192 C   0  0  1  0  0  0
   -3.2594   -3.5490    0.3817 C   0  0
   -1.9472   -2.7491   -0.0612 C   0  0  1  0  0  0
   -1.9893   -1.1718    0.2505 C   0  0  2  0  0  0
   -3.2571   -0.6200   -0.4481 C   0  0
   -0.6749   -3.4048    0.5672 C   0  0
    0.6078   -2.7910   -0.0828 C   0  0
    0.7222   -1.2750    0.1699 C   0  0  2  0  0  0
   -0.6240   -0.5642   -0.4039 C   0  0  2  0  0  0
    1.9734   -0.7057   -0.5804 C   0  0  1  0  0  0
    2.0765    0.8295   -0.3429 C   0  0  1  0  0  0
    0.7992    1.5272   -0.9029 C   0  0
   -0.4870    1.0105   -0.2047 C   0  0  1  0  0  0
    3.3135   -1.3612    0.0138 C   0  0
    4.6669   -0.6231   -0.4524 C   0  0
    4.5426    0.8478    0.1358 C   0  0  2  0  0  0
    3.3461    1.6639   -0.5208 C   0  0  2  0  0  0
    5.7022    1.8132   -0.1712 C   0  0
    5.0204    3.2641   -0.1141 C   0  0
    3.5185    3.0322    0.2786 C   0  0  1  0  0  0
    2.6435    4.1854   -0.1386 C   0  0
    2.7102    4.6677   -1.3782 C   0  0
    1.7379    4.8328    0.8714 C   0  0
    4.4172    0.6579    1.6909 C   0  0
   -2.1332   -0.7877    1.7747 C   0  0
    1.9013   -1.0060   -2.1263 C   0  0
    1.0118   -1.0354    1.6961 C   0  0
   -3.5365   -3.6458    1.9142 C   0  0
   -3.1407   -5.0009   -0.1163 C   0  0
   -5.9256   -3.4678   -0.0959 O   0  0
   -1.5921    1.7162   -0.7661 O   0  0
   -5.4215   -0.9023   -0.3484 H   0  0
   -4.5713   -1.2698    1.1720 H   0  0
   -4.3813   -3.0884   -1.4272 H   0  0
   -1.8853   -2.8497   -1.1541 H   0  0
   -3.3449    0.4472   -0.2443 H   0  0
   -3.1740   -0.7794   -1.5232 H   0  0
   -0.6627   -3.2166    1.6407 H   0  0
   -0.6940   -4.4795    0.3864 H   0  0
    1.4842   -3.2837    0.3382 H   0  0
    0.5737   -2.9655   -1.1582 H   0  0
   -0.6792   -0.7909   -1.4753 H   0  0
    2.6526    0.5984   -1.2096 H   0  0
    0.8829    2.6016   -0.7395 H   0  0
    0.7264    1.3262   -1.9717 H   0  0
   -0.4227    1.2440    0.8634 H   0  0
    3.2600   -1.3233    1.1018 H   0  0
    3.3602   -2.4003   -0.3122 H   0  0
    5.5416   -1.1286   -0.0432 H   0  0
    4.7367   -0.5981   -1.5399 H   0  0
    3.5248    1.8381   -1.5677 H   0  0
    6.4891    1.7247    0.5778 H   0  0
    6.1175    1.6185   -1.1600 H   0  0
    5.5145    3.8835    0.6345 H   0  0
    5.0848    3.7495   -1.0880 H   0  0
    3.3979    2.8756    1.3436 H   0  0
    3.4008    4.2279   -2.0977 H   0  0
    2.0741    5.5023   -1.6732 H   0  0
    1.1839    5.6427    0.3969 H   0  0
    2.3345    5.2330    1.6912 H   0  0
    1.0378    4.0929    1.2594 H   0  0
    4.3271    1.6326    2.1704 H   0  0
    5.3042    0.1487    2.0680 H   0  0
    3.5333    0.0605    1.9144 H   0  0
   -2.1518    0.2973    1.8763 H   0  0
   -1.2876   -1.1900    2.3326 H   0  0
   -3.0598   -1.2050    2.1691 H   0  0
    2.7843   -0.5978   -2.6178 H   0  0
    1.0070   -0.5447   -2.5452 H   0  0
    1.8626   -2.0836   -2.2862 H   0  0
    1.0948    0.0345    1.8871 H   0  0
    1.9453   -1.5265    1.9708 H   0  0
    0.1963   -1.4478    2.2903 H   0  0
   -3.0834   -3.9380    2.6434 H   0  0
   -4.8232   -3.9831    2.2303 H   0  0
   -3.9970   -2.4455    2.4042 H   0  0
   -2.6969   -5.5092    0.8279 H   0  0
   -3.2617   -5.1735   -0.8410 H   0  0
   -4.4490   -5.4769    0.4702 H   0  0
   -6.2176   -3.2527    0.8197 H   0  0
   -1.4704    2.6864   -0.6216 H   0  0
  1  2  1  0
  2  3  1  0
  3  4  1  0
  4  5  1  0
  5  6  1  0
  6  1  1  0
  4  7  1  0
  7  8  1  0
  8  9  1  0
  9 10  1  0
 10  5  1  0
  9 11  1  0
 11 12  1  0
 12 13  1  0
 13 14  1  0
 14 10  1  0
 11 15  1  0
 15 16  1  0
 16 17  1  0
 17 18  1  0
 18 12  1  0
 17 19  1  0
 19 20  1  0
 20 21  1  0
 21 18  1  0
 21 22  1  0
 22 23  2  0
 22 24  1  0
 17 25  1  0
  5 26  1  0
 11 27  1  0
  9 28  1  0
  3 29  1  0
  3 30  1  0
 14 32  1  0
  2 31  1  0
  1 33  1  0
  1 34  1  0
  2 35  1  0
  4 36  1  0
  6 37  1  0
  6 38  1  0
  7 39  1  0
  7 40  1  0
  8 41  1  0
  8 42  1  0
 10 43  1  0
 12 44  1  0
 13 45  1  0
 13 46  1  0
 14 47  1  0
 15 48  1  0
 15 49  1  0
 16 50  1  0
 16 51  1  0
 18 52  1  0
 19 53  1  0
 19 54  1  0
 20 55  1  0
 20 56  1  0
 21 57  1  0
 23 58  1  0
 23 59  1  0
 24 60  1  0
 24 61  1  0
 24 62  1  0
 25 63  1  0
 25 64  1  0
 25 65  1  0
 26 66  1  0
 26 67  1  0
 26 68  1  0
 27 69  1  0
 27 70  1  0
 27 71  1  0
 28 72  1  0
 28 73  1  0
 28 74  1  0
 29 75  1  0
 29 76  1  0
 29 77  1  0
 30 78  1  0
 30 79  1  0
 30 80  1  0
 31 81  1  0
 32 82  1  0
M  END
> <Name>
VGR2011_M9

> <Clean Energy>
97.1724

$$$$
SATM2017_M1
  SciTegic12132405553D

 81 85  0  0  0  0            999 V2000
   -4.9701   -1.5051   -0.3953 C   0  0
   -4.8267   -2.9490   -0.0894 C   0  0
   -3.5632   -3.5985   -0.5137 C   0  0  1  0  0  0
   -2.3964   -2.9260    0.3173 C   0  0  2  0  0  0
   -2.4447   -1.3289   -0.0381 C   0  0  1  0  0  0
   -3.8585   -0.7410    0.3540 C   0  0
   -1.0261   -3.4463   -0.1773 C   0  0
    0.2165   -2.7076    0.4413 C   0  0
    0.1534   -1.1919    0.0080 C   0  0  1  0  0  0
   -1.2213   -0.4562    0.5983 C   0  0  1  0  0  0
    1.5506   -0.3743    0.3311 C   0  0  2  0  0  0
    1.4370    1.0674   -0.1836 C   0  0  1  0  0  0
    0.1393    1.8173    0.4332 C   0  0
   -1.2303    1.0160    0.0296 C   0  0
    2.8310   -1.0582   -0.5488 C   0  0
    4.0893   -0.0110   -1.0528 C   0  0
    4.4311    0.9752   -0.0499 C   0  0  2  0  0  0
    2.9333    1.8414    0.3118 C   0  0  1  0  0  0
    5.6200    2.0063   -0.5747 C   0  0
    5.6035    3.1147    0.4198 C   0  0
    4.2855    3.9840    0.1500 C   0  0
    3.0434    3.1268   -0.3833 C   0  0
    4.4637    5.0181   -0.9719 C   0  0
    4.0419    4.7086    1.4787 C   0  0
    5.0754    0.1248    1.1545 C   0  0
    1.1706    1.1358   -1.8306 C   0  0
    1.8641   -0.3971    1.9300 C   0  0
   -1.3972   -0.2676    2.1950 C   0  0
   -2.5847   -3.3349    1.8480 C   0  0
   -3.6799   -5.1473   -0.3930 C   0  0
   -5.7447   -3.5955    0.4263 O   0  0
   -4.7749   -1.3530   -1.4660 H   0  0
   -5.9634   -1.1293   -0.1154 H   0  0
   -3.3666   -3.3186   -1.5580 H   0  0
   -2.3204   -1.2619   -1.1273 H   0  0
   -4.0100   -0.8444    1.4349 H   0  0
   -3.9240    0.3177    0.0781 H   0  0
   -0.9612   -4.5227    0.0230 H   0  0
   -0.9694   -3.2739   -1.2606 H   0  0
    0.2538   -2.8049    1.5339 H   0  0
    1.1100   -3.1667    0.0055 H   0  0
    0.0561   -1.1804   -1.0799 H   0  0
    0.2233    1.8623    1.5226 H   0  0
    0.0985    2.8400    0.0369 H   0  0
   -2.1217    1.5415    0.3941 H   0  0
   -1.2837    0.9635   -1.0509 H   0  0
    3.1459   -1.9732   -0.0291 H   0  0
    2.4595   -1.3406   -1.5426 H   0  0
    4.9521   -0.5956   -1.3967 H   0  0
    3.7371    0.5846   -1.8797 H   0  0
    2.9582    2.0729    1.3838 H   0  0
    6.5563    1.4371   -0.6418 H   0  0
    5.3995    2.4617   -1.5486 H   0  0
    5.5328    2.6156    1.3706 H   0  0
    6.4679    3.7913    0.4426 H   0  0
    2.1522    3.7642   -0.3290 H   0  0
    3.2148    2.8406   -1.4277 H   0  0
    3.5409    5.6056   -1.0727 H   0  0
    4.6747    4.5019   -1.9186 H   0  0
    5.3000    5.6850   -0.7218 H   0  0
    3.1588    5.3550    1.3834 H   0  0
    4.9211    5.3189    1.7260 H   0  0
    3.8728    3.9680    2.2733 H   0  0
    5.3535    0.7903    1.9775 H   0  0
    5.9765   -0.3768    0.7777 H   0  0
    4.4136   -0.6240    1.5352 H   0  0
    1.0887    2.1874   -2.1317 H   0  0
    0.2519    0.6276   -2.1076 H   0  0
    1.9601    0.6858   -2.4006 H   0  0
    2.7532    0.1048    2.1866 H   0  0
    1.9593   -1.4386    2.2576 H   0  0
    1.1090    0.0640    2.4806 H   0  0
   -2.3536    0.2246    2.3980 H   0  0
   -0.6325    0.3537    2.6015 H   0  0
   -1.3677   -1.1967    2.7069 H   0  0
   -1.7964   -2.9278    2.4528 H   0  0
   -2.5451   -4.4240    1.9461 H   0  0
   -3.5498   -2.9753    2.2244 H   0  0
   -2.7472   -5.6207   -0.7266 H   0  0
   -4.5073   -5.4926   -1.0275 H   0  0
   -3.8835   -5.4342    0.6459 H   0  0
  1  2  1  0
  2  3  1  0
  3  4  1  0
  4  5  1  0
  5  6  1  0
  6  1  1  0
  4  7  1  0
  7  8  1  0
  8  9  1  0
  9 10  1  0
 10  5  1  0
  9 11  1  0
 11 12  1  0
 12 13  1  0
 13 14  1  0
 14 10  1  0
 11 15  1  0
 15 16  1  0
 16 17  1  0
 17 18  1  0
 18 12  1  0
 17 19  1  0
 19 20  1  0
 20 21  1  0
 21 22  1  0
 22 18  1  0
 21 23  1  0
 21 24  1  0
 17 25  1  0
 12 26  1  0
 11 27  1  0
 10 28  1  0
  4 29  1  0
  3 30  1  0
  2 31  2  0
  1 32  1  0
  1 33  1  0
  3 34  1  0
  5 35  1  0
  6 36  1  0
  6 37  1  0
  7 38  1  0
  7 39  1  0
  8 40  1  0
  8 41  1  0
  9 42  1  0
 13 43  1  0
 13 44  1  0
 14 45  1  0
 14 46  1  0
 15 47  1  0
 15 48  1  0
 16 49  1  0
 16 50  1  0
 18 51  1  0
 19 52  1  0
 19 53  1  0
 20 54  1  0
 20 55  1  0
 22 56  1  0
 22 57  1  0
 23 58  1  0
 23 59  1  0
 23 60  1  0
 24 61  1  0
 24 62  1  0
 24 63  1  0
 25 64  1  0
 25 65  1  0
 25 66  1  0
 26 67  1  0
 26 68  1  0
 26 69  1  0
 27 70  1  0
 27 71  1  0
 27 72  1  0
 28 73  1  0
 28 74  1  0
 28 75  1  0
 29 76  1  0
 29 77  1  0
 29 78  1  0
 30 79  1  0
 30 80  1  0
 30 81  1  0
M  END
> <Name>
SATM2017_M1

> <Clean Energy>
199.724

$$$$
SATM2017_M3
  SciTegic12132405553D

 80 83  0  0  0  0            999 V2000
   -6.4648   -3.1101   -0.1036 C   0  0
   -5.9825   -4.5367   -0.4703 C   0  0  1  0  0  0
   -4.7642   -4.9315    0.3926 C   0  0
   -3.6550   -3.9133    0.2591 C   0  0
   -4.0079   -2.4475    0.3900 C   0  0  2  0  0  0
   -5.3028   -2.1371   -0.4292 C   0  0
   -2.3933   -4.3393    0.1430 C   0  0
   -1.2311   -3.3832    0.0181 C   0  0
   -1.5216   -1.9613    0.5668 C   0  0  2  0  0  0
   -2.8069   -1.4967   -0.1081 C   0  0  2  0  0  0
   -0.3579   -1.0145    0.1867 C   0  0  1  0  0  0
   -0.5839    0.4186    0.5287 C   0  0  2  0  0  0
   -1.8811    0.8698   -0.2473 C   0  0
   -3.1096    0.0315    0.2073 C   0  0
    1.0130   -1.3638    0.8263 C   0  0
    1.7861   -0.0029    0.7314 C   0  0
    0.8450    0.9569   -0.0918 C   0  0  2  0  0  0
    1.2205    2.5718   -0.0112 C   0  0  2  0  0  0
    0.2470    3.4282   -0.8480 C   0  0
    2.6203    3.0541   -0.5996 C   0  0
    3.9037    2.5143    0.1086 C   0  0
    5.3504    2.9995   -0.3888 C   0  0  2  0  0  0
    6.2251    1.9981    0.5152 C   0  0
    7.7595    1.9255    0.3028 C   0  0
    5.6794    4.6423   -0.1982 C   0  0
    7.0943    5.0790   -0.6576 C   0  0
    4.8122    5.5867   -1.0718 C   0  0
   -0.7845    0.7618    2.0925 C   0  0
   -4.3091   -2.2300    1.9455 C   0  0
   -7.0298   -5.4758   -0.2412 O   0  0
   -7.3349   -2.8507   -0.7212 H   0  0
   -6.7444   -3.0617    0.9561 H   0  0
   -5.7006   -4.5483   -1.5319 H   0  0
   -5.1104   -4.9189    1.4350 H   0  0
   -4.4005   -5.9362    0.1401 H   0  0
   -5.6129   -1.1008   -0.2502 H   0  0
   -5.0744   -2.2696   -1.4954 H   0  0
   -2.2080   -5.3814    0.0967 H   0  0
   -0.3249   -3.8208    0.4554 H   0  0
   -1.0623   -3.2734   -1.0619 H   0  0
   -1.6486   -1.9487    1.6510 H   0  0
   -2.6452   -1.6040   -1.1892 H   0  0
   -0.2346   -1.0066   -0.9046 H   0  0
   -2.0625    1.9329   -0.0865 H   0  0
   -1.7356    0.6775   -1.3194 H   0  0
   -3.2703    0.1792    1.2736 H   0  0
   -4.0049    0.3553   -0.3362 H   0  0
    1.4710   -2.2577    0.3810 H   0  0
    0.8836   -1.5072    1.9069 H   0  0
    2.8320   -0.0740    0.4306 H   0  0
    1.7620    0.3935    1.7444 H   0  0
    0.8624    0.6376   -1.1425 H   0  0
    1.1715    2.8809    1.0411 H   0  0
    0.5174    4.4872   -0.7374 H   0  0
   -0.7700    3.2926   -0.5082 H   0  0
    0.3268    3.1395   -1.9055 H   0  0
    2.6644    2.8031   -1.6681 H   0  0
    2.6161    4.1210   -0.4829 H   0  0
    3.8311    2.7432    1.1801 H   0  0
    3.8951    1.4437   -0.0296 H   0  0
    5.4801    2.7348   -1.4469 H   0  0
    6.0310    2.2340    1.5707 H   0  0
    5.8534    0.9850    0.3076 H   0  0
    8.1751    1.1584    0.9711 H   0  0
    8.2243    2.8747    0.5379 H   0  0
    7.9726    1.6545   -0.7405 H   0  0
    5.5462    4.9006    0.8619 H   0  0
    7.2021    6.1603   -0.4911 H   0  0
    7.2124    4.8619   -1.7276 H   0  0
    7.8589    4.5708   -0.0978 H   0  0
    5.1091    6.6257   -0.8713 H   0  0
    3.7683    5.4820   -0.8421 H   0  0
    4.9822    5.3579   -2.1324 H   0  0
   -0.8855    1.8497    2.2009 H   0  0
    0.0580    0.4267    2.6992 H   0  0
   -1.6866    0.2799    2.4786 H   0  0
   -4.6023   -1.1911    2.1299 H   0  0
   -3.4144   -2.4624    2.5343 H   0  0
   -5.1209   -2.8841    2.2769 H   0  0
   -7.2803   -5.4568    0.7163 H   0  0
  1  2  1  0
  2  3  1  0
  3  4  1  0
  4  5  1  0
  5  6  1  0
  6  1  1  0
  4  7  2  0
  7  8  1  0
  8  9  1  0
  9 10  1  0
 10  5  1  0
  9 11  1  0
 11 12  1  0
 12 13  1  0
 13 14  1  0
 14 10  1  0
 15 16  1  0
 16 17  1  0
 17 12  1  0
 11 15  1  0
 17 18  1  0
 18 19  1  0
 18 20  1  0
 20 21  1  0
 21 22  1  0
 22 23  1  0
 23 24  1  0
 22 25  1  0
 25 26  1  0
 25 27  1  0
 12 28  1  0
  5 29  1  0
  2 30  1  0
  1 31  1  0
  1 32  1  0
  2 33  1  0
  3 34  1  0
  3 35  1  0
  6 36  1  0
  6 37  1  0
  7 38  1  0
  8 39  1  0
  8 40  1  0
  9 41  1  0
 10 42  1  0
 11 43  1  0
 13 44  1  0
 13 45  1  0
 14 46  1  0
 14 47  1  0
 15 48  1  0
 15 49  1  0
 16 50  1  0
 16 51  1  0
 17 52  1  0
 18 53  1  0
 19 54  1  0
 19 55  1  0
 19 56  1  0
 20 57  1  0
 20 58  1  0
 21 59  1  0
 21 60  1  0
 22 61  1  0
 23 62  1  0
 23 63  1  0
 24 64  1  0
 24 65  1  0
 24 66  1  0
 25 67  1  0
 26 68  1  0
 26 69  1  0
 26 70  1  0
 27 71  1  0
 27 72  1  0
 27 73  1  0
 28 74  1  0
 28 75  1  0
 28 76  1  0
 29 77  1  0
 29 78  1  0
 29 79  1  0
 30 80  1  0
M  END
> <Name>
SATM2017_M3

> <Clean Energy>
130.363

$$$$
SATM2017_M4
  SciTegic12132405553D

 77 81  0  0  0  0            999 V2000
   -4.5487   -1.0900   -1.2321 C   0  0
   -3.9574   -2.3584   -1.8424 C   0  0
   -2.9951   -3.1995   -1.0527 C   0  0
   -1.9316   -2.2082   -0.3524 C   0  0  1  0  0  0
   -2.5091   -0.9237    0.3831 C   0  0  2  0  0  0
   -3.3832   -0.2108   -0.7133 C   0  0
   -0.8665   -3.0495    0.5163 C   0  0
   -0.1968   -2.1575    1.5754 C   0  0
    0.1733   -0.7190    1.2525 C   0  0  2  0  0  0
   -1.1324   -0.0386    0.6367 C   0  0
    1.4280   -0.3116    0.3347 C   0  0  1  0  0  0
    1.4617    1.2372    0.3041 C   0  0
    0.3025    1.9383    0.2329 C   0  0
   -1.0188    1.2392    0.1903 C   0  0
    2.8937   -0.9299    0.9053 C   0  0
    3.9716   -0.3486   -0.0327 C   0  0
    4.1060    1.1949    0.1103 C   0  0  2  0  0  0
    2.7849    1.9096    0.6620 C   0  0  1  0  0  0
    4.4804    1.6659   -1.3334 C   0  0
    4.6015    3.2273   -1.4100 C   0  0
    3.2518    3.9350   -0.9988 C   0  0
    2.9488    3.4959    0.4878 C   0  0
    2.1149    3.6153   -2.0106 C   0  0
    3.4497    5.4476   -1.0301 C   0  0
    5.1997    1.5294    1.1808 C   0  0
    1.1549   -0.8250   -1.1745 C   0  0
   -4.3114   -2.7226   -2.9685 O   0  0
    0.4534   -0.1712    2.7134 C   0  0
   -3.3947   -1.0977    1.6989 C   0  0
   -3.8296   -4.0541   -0.0486 C   0  0
   -2.2864   -4.2117   -1.9752 C   0  0
   -5.1383   -0.5522   -1.9864 H   0  0
   -5.1853   -1.3524   -0.3794 H   0  0
   -1.3890   -1.7100   -1.1508 H   0  0
   -3.7645    0.7369   -0.3094 H   0  0
   -2.7438   -0.0063   -1.5840 H   0  0
   -1.3584   -3.7907    1.1540 H   0  0
   -0.1862   -3.5589   -0.1785 H   0  0
   -0.9737   -2.0349    2.3131 H   0  0
    0.6311   -2.6907    2.0599 H   0  0
    0.3137    2.9925    0.2444 H   0  0
   -1.8433    1.7604   -0.2034 H   0  0
    3.1132   -0.6263    1.9383 H   0  0
    2.8521   -2.0254    0.8445 H   0  0
    4.9701   -0.8041   -0.0177 H   0  0
    3.5703   -0.5448   -0.9780 H   0  0
    2.7538    1.6746    1.7351 H   0  0
    5.4237    1.1931   -1.6353 H   0  0
    3.6847    1.3497   -2.0187 H   0  0
    5.3899    3.5505   -0.7196 H   0  0
    4.8694    3.5304   -2.4306 H   0  0
    3.8237    3.8223    1.0535 H   0  0
    2.0622    4.0018    0.8897 H   0  0
    1.1990    4.1351   -1.6981 H   0  0
    1.9220    2.5389   -2.0532 H   0  0
    2.4135    3.9662   -3.0072 H   0  0
    2.5197    5.9425   -0.7179 H   0  0
    3.7091    5.7596   -2.0511 H   0  0
    4.2621    5.7216   -0.3428 H   0  0
    5.3589    2.6058    1.2726 H   0  0
    6.1442    1.0571    0.8801 H   0  0
    4.8843    1.1275    2.1534 H   0  0
    1.9495   -0.5013   -1.8466 H   0  0
    0.2148   -0.4186   -1.5523 H   0  0
    1.1034   -1.9184   -1.1837 H   0  0
    0.6352    0.9056    2.7065 H   0  0
    1.3231   -0.6800    3.1430 H   0  0
   -0.4244   -0.3752    3.3409 H   0  0
   -3.6960   -0.1038    2.0547 H   0  0
   -2.8232   -1.5982    2.4809 H   0  0
   -4.2878   -1.6829    1.4864 H   0  0
   -3.1627   -4.6967    0.5388 H   0  0
   -4.5285   -4.6831   -0.6158 H   0  0
   -4.3957   -3.4150    0.6209 H   0  0
   -1.6067   -4.8470   -1.3949 H   0  0
   -1.7162   -3.6661   -2.7397 H   0  0
   -3.0415   -4.8441   -2.4617 H   0  0
  1  2  1  0
  2  3  1  0
  3  4  1  0
  4  5  1  0
  5  6  1  0
  6  1  1  0
  4  7  1  0
  7  8  1  0
  8  9  1  0
  9 10  1  0
 10  5  1  0
  9 11  1  0
 11 12  1  0
 12 13  2  0
 13 14  1  0
 14 10  2  0
 11 15  1  0
 15 16  1  0
 16 17  1  0
 17 18  1  0
 18 12  1  0
 17 19  1  0
 19 20  1  0
 20 21  1  0
 21 22  1  0
 22 18  1  0
 21 23  1  0
 21 24  1  0
 17 25  1  0
 11 26  1  0
  2 27  2  0
  9 28  1  0
  5 29  1  0
  3 30  1  0
  3 31  1  0
  1 32  1  0
  1 33  1  0
  4 34  1  0
  6 35  1  0
  6 36  1  0
  7 37  1  0
  7 38  1  0
  8 39  1  0
  8 40  1  0
 13 41  1  0
 14 42  1  0
 15 43  1  0
 15 44  1  0
 16 45  1  0
 16 46  1  0
 18 47  1  0
 19 48  1  0
 19 49  1  0
 20 50  1  0
 20 51  1  0
 22 52  1  0
 22 53  1  0
 23 54  1  0
 23 55  1  0
 23 56  1  0
 24 57  1  0
 24 58  1  0
 24 59  1  0
 25 60  1  0
 25 61  1  0
 25 62  1  0
 26 63  1  0
 26 64  1  0
 26 65  1  0
 28 66  1  0
 28 67  1  0
 28 68  1  0
 29 69  1  0
 29 70  1  0
 29 71  1  0
 30 72  1  0
 30 73  1  0
 30 74  1  0
 31 75  1  0
 31 76  1  0
 31 77  1  0
M  END
> <Name>
SATM2017_M4

> <Clean Energy>
193.453

$$$$
SATM2017_M5
  SciTegic12132405553D

 83 87  0  0  0  0            999 V2000
   -4.8817   -2.4040   -0.6031 C   0  0
   -4.5939   -3.8490   -0.9982 C   0  0
   -3.4453   -4.5971   -0.3616 C   0  0
   -2.1458   -3.6148   -0.3960 C   0  0  1  0  0  0
   -2.4159   -2.1258    0.1907 C   0  0  2  0  0  0
   -3.5726   -1.5496   -0.6958 C   0  0
   -0.8728   -4.2957    0.2789 C   0  0
    0.3985   -3.4215   -0.0372 C   0  0
    0.3222   -1.9604    0.5242 C   0  0  2  0  0  0
   -1.0498   -1.2857   -0.1149 C   0  0  2  0  0  0
    1.6183   -1.0010   -0.0233 C   0  0  1  0  0  0
    1.4314    0.6182    0.4013 C   0  0  2  0  0  0
    0.0736    1.1166   -0.2032 C   0  0
   -1.1863    0.2655    0.3075 C   0  0
    3.0707   -1.5427    0.5315 C   0  0
    4.2818   -0.6856   -0.0972 C   0  0
    4.1882    0.8083    0.2847 C   0  0  2  0  0  0
    2.7532    1.3842   -0.2316 C   0  0  2  0  0  0
    1.6516   -1.1287   -1.6592 C   0  0
   -5.3609   -4.4401   -1.7653 O   0  0
    0.3936   -2.1681    2.1214 C   0  0
   -2.8826   -1.9967    1.7261 C   0  0
   -3.8938   -5.1254    1.0404 C   0  0
   -3.1605   -5.8842   -1.1611 C   0  0
    5.0265    1.6593   -0.5929 C   0  0
    4.4645    3.1239   -0.4737 C   0  0
    3.0058    2.8812    0.1197 C   0  0  1  0  0  0
    4.6336    0.9436    1.8134 C   0  0
    1.3164    0.9722    1.9594 C   0  0
    2.0589    3.9798   -0.2596 C   0  0
    1.6308    4.0991   -1.5157 C   0  0
    1.6009    4.9447    0.7856 C   0  0
    1.3661    6.2299    0.2070 O   0  0
   -5.6671   -1.9862   -1.2469 H   0  0
   -5.2243   -2.3907    0.4362 H   0  0
   -1.9184   -3.4641   -1.4601 H   0  0
   -3.7872   -0.5139   -0.4077 H   0  0
   -3.2375   -1.5754   -1.7416 H   0  0
   -1.0315   -4.4220    1.3560 H   0  0
   -0.6988   -5.2757   -0.1740 H   0  0
    1.3030   -3.9062    0.3517 H   0  0
    0.4450   -3.3920   -1.1250 H   0  0
   -0.9376   -1.3254   -1.1960 H   0  0
   -0.0608    2.1737    0.0516 H   0  0
    0.1019    1.0179   -1.2905 H   0  0
   -1.2952    0.3460    1.3933 H   0  0
   -2.0739    0.6910   -0.1703 H   0  0
    3.1021   -1.4803    1.6256 H   0  0
    3.1948   -2.5886    0.2247 H   0  0
    5.2668   -1.0730    0.1933 H   0  0
    4.1857   -0.7644   -1.1765 H   0  0
    2.7255    1.2564   -1.3122 H   0  0
    2.4587   -0.5412   -2.0890 H   0  0
    0.7181   -0.7823   -2.1013 H   0  0
    1.8094   -2.1711   -1.9457 H   0  0
    0.3030   -1.2612    2.6491 H   0  0
    1.3480   -2.6385    2.3797 H   0  0
   -0.3909   -2.8189    2.4605 H   0  0
   -3.0416   -0.9402    1.9682 H   0  0
   -2.1642   -2.4020    2.3938 H   0  0
   -3.8113   -2.5166    1.8899 H   0  0
   -3.0758   -5.6986    1.4959 H   0  0
   -4.7635   -5.7821    0.9053 H   0  0
   -4.1723   -4.3209    1.6950 H   0  0
   -2.3408   -6.4452   -0.6968 H   0  0
   -2.8866   -5.6173   -2.1909 H   0  0
   -4.0641   -6.5090   -1.1715 H   0  0
    6.1178    1.5414   -0.5732 H   0  0
    4.6645    1.3399   -1.5793 H   0  0
    4.9839    3.8581    0.1567 H   0  0
    4.4562    3.4418   -1.5247 H   0  0
    3.0988    2.8887    1.1961 H   0  0
    4.6061    1.9867    2.1458 H   0  0
    5.6614    0.5698    1.9077 H   0  0
    3.9915    0.3487    2.4548 H   0  0
    1.2166    2.0574    2.0739 H   0  0
    2.1668    0.6383    2.4996 H   0  0
    0.4504    0.5210    2.3997 H   0  0
    0.6471    4.5773    1.1900 H   0  0
    2.3315    4.9864    1.6060 H   0  0
    2.2095    6.5785   -0.1767 H   0  0
    1.9577    3.4131   -2.2565 H   0  0
    0.9619    4.8788   -1.7752 H   0  0
  1  2  1  0
  2  3  1  0
  3  4  1  0
  4  5  1  0
  5  6  1  0
  6  1  1  0
  4  7  1  0
  7  8  1  0
  8  9  1  0
  9 10  1  0
 10  5  1  0
  9 11  1  0
 11 12  1  0
 12 13  1  0
 13 14  1  0
 14 10  1  0
 11 15  1  0
 15 16  1  0
 16 17  1  0
 17 18  1  0
 18 12  1  0
 11 19  1  0
  2 20  2  0
  9 21  1  0
  5 22  1  0
  3 23  1  0
  3 24  1  0
 17 25  1  0
 25 26  1  0
 26 27  1  0
 27 18  1  0
 17 28  1  0
 12 29  1  0
 27 30  1  0
 30 31  2  0
 30 32  1  0
 32 33  1  0
  1 34  1  0
  1 35  1  0
  4 36  1  0
  6 37  1  0
  6 38  1  0
  7 39  1  0
  7 40  1  0
  8 41  1  0
  8 42  1  0
 10 43  1  0
 13 44  1  0
 13 45  1  0
 14 46  1  0
 14 47  1  0
 15 48  1  0
 15 49  1  0
 16 50  1  0
 16 51  1  0
 18 52  1  0
 19 53  1  0
 19 54  1  0
 19 55  1  0
 21 56  1  0
 21 57  1  0
 21 58  1  0
 22 59  1  0
 22 60  1  0
 22 61  1  0
 23 62  1  0
 23 63  1  0
 23 64  1  0
 24 65  1  0
 24 66  1  0
 24 67  1  0
 25 68  1  0
 25 69  1  0
 26 70  1  0
 26 71  1  0
 27 72  1  0
 28 73  1  0
 28 74  1  0
 28 75  1  0
 29 76  1  0
 29 77  1  0
 29 78  1  0
 32 79  1  0
 32 80  1  0
 33 81  1  0
 31 82  1  0
 31 83  1  0
M  END
> <Name>
SATM2017_M5

> <Clean Energy>
167.098

$$$$
SATM2017_M6
  SciTegic12132405553D

 80 84  0  0  0  0            999 V2000
   -5.0396   -2.4378    0.0093 C   0  0
   -4.7115   -3.8639   -0.4267 C   0  0
   -3.3087   -4.4549   -0.2662 C   0  0
   -2.2271   -3.3038   -0.6125 C   0  0  1  0  0  0
   -2.5162   -1.8867    0.2711 C   0  0  2  0  0  0
   -3.8789   -1.4245   -0.3221 C   0  0
   -0.6437   -3.7863   -0.6895 C   0  0
    0.0557   -3.3865    0.5131 C   0  0
    0.1761   -1.7117    0.5146 C   0  0  2  0  0  0
   -1.2808   -1.0338   -0.1306 C   0  0  2  0  0  0
    1.4002   -0.9478   -0.3982 C   0  0  1  0  0  0
    1.3145    0.6412   -0.0827 C   0  0  2  0  0  0
   -0.0738    1.2037   -0.5061 C   0  0
   -1.2782    0.5057    0.1986 C   0  0  1  0  0  0
    2.8633   -1.4969    0.0552 C   0  0
    4.0175   -0.7083   -0.6719 C   0  0
    3.9179    0.8034   -0.3220 C   0  0  2  0  0  0
    2.5179    1.3795   -0.8215 C   0  0  2  0  0  0
    1.2700   -1.2032   -1.9900 C   0  0
   -5.6279   -4.5966   -0.8129 O   0  0
    0.5611   -1.4596    2.0765 C   0  0
   -2.7118   -1.8796    1.8714 C   0  0
   -3.1723   -5.1374    1.1298 C   0  0
   -3.1703   -5.6266   -1.2566 C   0  0
    4.7797    1.6331   -1.2074 C   0  0
    4.2090    3.1031   -1.1347 C   0  0
    2.7684    2.8870   -0.4927 C   0  0  1  0  0  0
    4.2686    0.9793    1.2417 C   0  0
    1.8163    3.9852   -0.8693 C   0  0
   -2.4431    1.1406   -0.3163 O   0  0
    1.4031    4.1227   -2.1279 C   0  0
    1.3350    4.9310    0.1807 C   0  0
   -5.9852   -2.1159   -0.4468 H   0  0
   -5.1879   -2.4605    1.0912 H   0  0
   -2.4154   -3.0649   -1.6675 H   0  0
   -4.1446   -0.4331    0.0640 H   0  0
   -3.7652   -1.3736   -1.4134 H   0  0
   -0.5804   -4.8380   -0.9768 H   0  0
   -0.1450   -3.2245   -1.4224 H   0  0
   -0.6068   -3.7350    1.3107 H   0  0
    1.0545   -3.8157    0.6622 H   0  0
   -1.3089   -1.1498   -1.2167 H   0  0
    1.4427    0.7982    0.9850 H   0  0
   -0.1161    2.2661   -0.2668 H   0  0
   -0.1911    1.0758   -1.5870 H   0  0
   -1.2379    0.6524    1.2849 H   0  0
    3.0016   -1.3641    1.1208 H   0  0
    2.9318   -2.5669   -0.1797 H   0  0
    5.0076   -1.0884   -0.3892 H   0  0
    3.8875   -0.8283   -1.7485 H   0  0
    2.4356    1.2448   -1.9042 H   0  0
    2.0584   -0.6898   -2.5412 H   0  0
    0.3077   -0.8477   -2.3637 H   0  0
    1.3545   -2.2751   -2.1868 H   0  0
    0.6402   -0.3940    2.2940 H   0  0
    1.5129   -1.9424    2.3073 H   0  0
   -0.1742   -1.8815    2.7294 H   0  0
   -2.8861   -0.8506    2.2102 H   0  0
   -1.8740   -2.2774    2.3638 H   0  0
   -3.5600   -2.4870    2.1653 H   0  0
   -2.1803   -5.6016    1.2108 H   0  0
   -3.9450   -5.9123    1.2211 H   0  0
   -3.2994   -4.4269    1.9288 H   0  0
   -2.1814   -6.0887   -1.1579 H   0  0
   -3.3015   -5.2524   -2.2811 H   0  0
   -3.9421   -6.3771   -1.0378 H   0  0
    5.8706    1.5162   -1.1681 H   0  0
    4.4317    1.2874   -2.1907 H   0  0
    4.7504    3.8682   -0.5623 H   0  0
    4.1594    3.3725   -2.1980 H   0  0
    2.8736    2.9178    0.5744 H   0  0
    4.2425    2.0269    1.5496 H   0  0
    5.2810    0.5926    1.4162 H   0  0
    3.5591    0.4190    1.8600 H   0  0
   -2.4097    2.1052   -0.1056 H   0  0
    1.7439    3.4521   -2.8767 H   0  0
    0.7317    4.9028   -2.3810 H   0  0
    0.7034    5.7159   -0.2582 H   0  0
    2.2037    5.3591    0.7002 H   0  0
    0.7739    4.3572    0.9326 H   0  0
  1  2  1  0
  2  3  1  0
  3  4  1  0
  4  5  1  0
  5  6  1  0
  6  1  1  0
  4  7  1  0
  7  8  1  0
  8  9  1  0
  9 10  1  0
 10  5  1  0
  9 11  1  0
 11 12  1  0
 12 13  1  0
 13 14  1  0
 14 10  1  0
 11 15  1  0
 15 16  1  0
 16 17  1  0
 17 18  1  0
 18 12  1  0
 11 19  1  0
  2 20  2  0
  9 21  1  0
  5 22  1  0
  3 23  1  0
  3 24  1  0
 17 25  1  0
 25 26  1  0
 26 27  1  0
 27 18  1  0
 17 28  1  0
 27 29  1  0
 14 30  1  0
 29 31  2  0
 29 32  1  0
  1 33  1  0
  1 34  1  0
  4 35  1  0
  6 36  1  0
  6 37  1  0
  7 38  1  0
  7 39  1  0
  8 40  1  0
  8 41  1  0
 10 42  1  0
 12 43  1  0
 13 44  1  0
 13 45  1  0
 14 46  1  0
 15 47  1  0
 15 48  1  0
 16 49  1  0
 16 50  1  0
 18 51  1  0
 19 52  1  0
 19 53  1  0
 19 54  1  0
 21 55  1  0
 21 56  1  0
 21 57  1  0
 22 58  1  0
 22 59  1  0
 22 60  1  0
 23 61  1  0
 23 62  1  0
 23 63  1  0
 24 64  1  0
 24 65  1  0
 24 66  1  0
 25 67  1  0
 25 68  1  0
 26 69  1  0
 26 70  1  0
 27 71  1  0
 28 72  1  0
 28 73  1  0
 28 74  1  0
 30 75  1  0
 31 76  1  0
 31 77  1  0
 32 78  1  0
 32 79  1  0
 32 80  1  0
M  END
> <Name>
SATM2017_M6

> <Clean Energy>
224.851

$$$$
SATM2017_M7
  SciTegic12132405553D

 74 78  0  0  0  0            999 V2000
   -5.6604   -1.9579    0.3277 C   0  0
   -5.6006   -3.3223   -0.1618 C   0  0
   -4.4288   -3.9213   -0.3483 C   0  0
   -3.1538   -3.1733   -0.0629 C   0  0
   -3.2406   -1.8082    0.4946 C   0  0
   -4.4428   -1.2448    0.6714 C   0  0
   -1.9616   -3.7231   -0.3317 C   0  0
   -0.7026   -3.0048   -0.1462 C   0  0
   -0.6416   -1.7782    0.3824 C   0  0
   -1.9774   -1.0726    0.9268 C   0  0  1  0  0  0
    0.7697   -1.0075    0.4682 C   0  0  2  0  0  0
    0.6350    0.4685    0.1315 C   0  0  1  0  0  0
   -0.5722    1.1707    0.9518 C   0  0
   -1.9740    0.4610    0.5695 C   0  0
    1.9573   -1.6038   -0.6085 C   0  0
    3.1859   -0.5208   -1.1105 C   0  0
    3.6329    0.3322   -0.0356 C   0  0  1  0  0  0
    2.1880    1.1747    0.5482 C   0  0  1  0  0  0
    1.2121   -1.1916    2.0152 C   0  0
   -6.7793   -4.0089   -0.4407 O   0  0
    4.3526   -0.6638    1.0058 C   0  0
    0.2123    0.6806   -1.4690 C   0  0
   -2.0989   -1.1426    2.4973 C   0  0
   -4.4388   -5.3457   -0.8668 C   0  0
   -6.7554   -1.4106    0.4949 O   0  0
    4.8055    1.3978   -0.5338 C   0  0
    4.8904    2.3790    0.5720 C   0  0
    3.5744    3.2766    0.4631 C   0  0  1  0  0  0
    2.2586    2.5148   -0.0333 C   0  0
    3.4986    3.8699    1.8763 C   0  0
    3.7279    4.3908   -0.5219 C   0  0
    2.7817    4.7049   -1.2529 O   0  0
    4.9434    5.0576   -0.6216 O   0  0
    4.8582    6.0622   -1.6307 C   0  0
   -4.5241   -0.2738    1.0849 H   0  0
   -1.9088   -4.6916   -0.7402 H   0  0
    0.1755   -3.4777   -0.4766 H   0  0
   -0.3945    1.0864    2.0293 H   0  0
   -0.6204    2.2328    0.6787 H   0  0
   -2.8211    0.9511    1.0657 H   0  0
   -2.1146    0.5569   -0.4946 H   0  0
    2.3079   -2.5660   -0.2114 H   0  0
    1.4925   -1.7859   -1.5866 H   0  0
    4.0015   -1.0741   -1.5933 H   0  0
    2.7741    0.1718   -1.8310 H   0  0
    2.3203    1.3040    1.6295 H   0  0
    2.1315   -0.7299    2.2531 H   0  0
    1.3054   -2.2657    2.2197 H   0  0
    0.4907   -0.7774    2.6713 H   0  0
   -7.5557   -3.4286   -0.2517 H   0  0
    4.7144   -0.1022    1.8726 H   0  0
    5.2068   -1.1324    0.4993 H   0  0
    3.7061   -1.4415    1.3552 H   0  0
    0.9360    0.2835   -2.1530 H   0  0
   -0.7312    0.1936   -1.6969 H   0  0
    0.1118    1.7550   -1.6685 H   0  0
   -2.1122   -2.1957    2.8089 H   0  0
   -1.2830   -0.6380    2.9812 H   0  0
   -3.0311   -0.6587    2.8131 H   0  0
   -3.5439   -5.8892   -0.5376 H   0  0
   -4.4268   -5.3043   -1.9646 H   0  0
   -5.3614   -5.8563   -0.5587 H   0  0
    5.7187    0.8247   -0.7403 H   0  0
    4.5223    1.9713   -1.4272 H   0  0
    4.8761    1.7833    1.4693 H   0  0
    5.7643    3.0428    0.6020 H   0  0
    2.3258    2.3218   -1.1105 H   0  0
    1.3959    3.1638    0.1624 H   0  0
    2.6437    4.5570    1.9367 H   0  0
    4.4272    4.4163    2.0911 H   0  0
    3.3718    3.0587    2.6075 H   0  0
    5.8235    6.5818   -1.7123 H   0  0
    4.0737    6.7839   -1.3628 H   0  0
    4.6119    5.5922   -2.5941 H   0  0
  1  2  1  0
  2  3  2  0
  3  4  1  0
  4  5  1  0
  5  6  2  0
  6  1  1  0
  4  7  2  0
  7  8  1  0
  8  9  2  0
  9 10  1  0
 10  5  1  0
  9 11  1  0
 11 12  1  0
 12 13  1  0
 13 14  1  0
 14 10  1  0
 11 15  1  0
 15 16  1  0
 16 17  1  0
 17 18  1  0
 18 12  1  0
 11 19  1  0
 17 21  1  0
 12 22  1  0
 10 23  1  0
  3 24  1  0
  2 20  1  0
  1 25  2  0
 17 26  1  0
 26 27  1  0
 27 28  1  0
 28 29  1  0
 29 18  1  0
 28 30  1  0
 28 31  1  0
 31 32  2  0
 31 33  1  0
 33 34  1  0
  6 35  1  0
  7 36  1  0
  8 37  1  0
 13 38  1  0
 13 39  1  0
 14 40  1  0
 14 41  1  0
 15 42  1  0
 15 43  1  0
 16 44  1  0
 16 45  1  0
 18 46  1  0
 19 47  1  0
 19 48  1  0
 19 49  1  0
 20 50  1  0
 21 51  1  0
 21 52  1  0
 21 53  1  0
 22 54  1  0
 22 55  1  0
 22 56  1  0
 23 57  1  0
 23 58  1  0
 23 59  1  0
 24 60  1  0
 24 61  1  0
 24 62  1  0
 26 63  1  0
 26 64  1  0
 27 65  1  0
 27 66  1  0
 29 67  1  0
 29 68  1  0
 30 69  1  0
 30 70  1  0
 30 71  1  0
 34 72  1  0
 34 73  1  0
 34 74  1  0
M  END
> <Name>
SATM2017_M7

> <Clean Energy>
220.404

$$$$
SATM2017_M8
  SciTegic12132405553D

 80 84  0  0  0  0            999 V2000
   -4.9557   -1.1072   -0.4766 C   0  0
   -4.8394   -2.5758   -0.2805 C   0  0
   -3.5905   -3.2185   -0.7609 C   0  0  1  0  0  0
   -2.4117   -2.6352    0.1109 C   0  0  2  0  0  0
   -2.4300   -1.0019   -0.1176 C   0  0  1  0  0  0
   -3.8272   -0.4195    0.3234 C   0  0
   -1.0438   -3.1347   -0.4223 C   0  0
    0.0595   -2.3935    0.2881 C   0  0
    0.1492   -0.9149   -0.0464 C   0  0  1  0  0  0
   -1.1814   -0.1917    0.5806 C   0  0  1  0  0  0
    1.5831   -0.1938    0.2689 C   0  0  2  0  0  0
    1.5189    1.2738   -0.1656 C   0  0  1  0  0  0
    0.2560    2.0398    0.5254 C   0  0
   -1.1515    1.3107    0.1013 C   0  0
    2.8037   -0.8931   -0.6724 C   0  0
    4.0993    0.1232   -1.1521 C   0  0
    4.5060    1.0445   -0.1076 C   0  0  2  0  0  0
    3.0562    1.9559    0.3332 C   0  0  1  0  0  0
    5.7281    2.0504   -0.6050 C   0  0
    5.7803    3.1050    0.4465 C   0  0
    4.4960    4.0432    0.2531 C   0  0
    3.2074    3.2698   -0.2956 C   0  0
    4.6959    5.1274   -0.8163 C   0  0
    4.3113    4.7053    1.6234 C   0  0
    5.1363    0.1053    1.0369 C   0  0
    1.2221    1.4429   -1.8005 C   0  0
    1.9220   -0.3037    1.8600 C   0  0
   -1.3373   -0.1153    2.1824 C   0  0
   -2.5946   -3.1450    1.6080 C   0  0
   -3.7322   -4.7688   -0.7538 C   0  0
   -5.7661   -3.2400    0.1958 O   0  0
    0.9493   -3.0000    0.8931 O   0  0
   -4.7609   -0.8790   -1.5337 H   0  0
   -5.9409   -0.7350   -0.1648 H   0  0
   -3.3926   -2.8644   -1.7822 H   0  0
   -2.3065   -0.8572   -1.1993 H   0  0
   -3.9758   -0.6007    1.3946 H   0  0
   -3.8725    0.6583    0.1278 H   0  0
   -0.9483   -4.2238   -0.3271 H   0  0
   -1.0139   -2.8256   -1.4762 H   0  0
   -0.0274   -0.8305   -1.1216 H   0  0
    0.3600    2.0180    1.6142 H   0  0
    0.2464    3.0845    0.1889 H   0  0
   -2.0226    1.8409    0.5062 H   0  0
   -1.2177    1.3233   -0.9790 H   0  0
    3.0841   -1.8464   -0.2042 H   0  0
    2.3979   -1.1079   -1.6697 H   0  0
    4.9279   -0.4803   -1.5442 H   0  0
    3.7575    0.7746   -1.9399 H   0  0
    3.1145    2.1288    1.4149 H   0  0
    6.6372    1.4462   -0.7227 H   0  0
    5.5079    2.5657   -1.5487 H   0  0
    5.7072    2.5595    1.3712 H   0  0
    6.6737    3.7419    0.4850 H   0  0
    2.3459    3.9405   -0.1872 H   0  0
    3.3445    3.0329   -1.3572 H   0  0
    3.7976    5.7580   -0.8648 H   0  0
    4.8647    4.6542   -1.7935 H   0  0
    5.5654    5.7439   -0.5506 H   0  0
    3.4552    5.3927    1.5823 H   0  0
    5.2209    5.2637    1.8828 H   0  0
    4.1261    3.9310    2.3816 H   0  0
    5.4605    0.7143    1.8863 H   0  0
    6.0062   -0.4149    0.6146 H   0  0
    4.4490   -0.6327    1.3936 H   0  0
    1.1772    2.5118   -2.0429 H   0  0
    0.2784    0.9876   -2.0842 H   0  0
    1.9809    0.9938   -2.4111 H   0  0
    2.8391    0.1416    2.1250 H   0  0
    1.9689   -1.3622    2.1364 H   0  0
    1.1939    0.1695    2.4443 H   0  0
   -2.2794    0.3854    2.4294 H   0  0
   -0.5501    0.4553    2.6236 H   0  0
   -1.3296   -1.0837    2.6236 H   0  0
   -1.7941   -2.7900    2.2319 H   0  0
   -2.5715   -4.2389    1.6306 H   0  0
   -3.5509   -2.7972    2.0167 H   0  0
   -2.8090   -5.2312   -1.1266 H   0  0
   -4.5683   -5.0530   -1.4071 H   0  0
   -3.9357   -5.1278    0.2626 H   0  0
  1  2  1  0
  2  3  1  0
  3  4  1  0
  4  5  1  0
  5  6  1  0
  6  1  1  0
  4  7  1  0
  7  8  1  0
  8  9  1  0
  9 10  1  0
 10  5  1  0
  9 11  1  0
 11 12  1  0
 12 13  1  0
 13 14  1  0
 14 10  1  0
 11 15  1  0
 15 16  1  0
 16 17  1  0
 17 18  1  0
 18 12  1  0
 17 19  1  0
 19 20  1  0
 20 21  1  0
 21 22  1  0
 22 18  1  0
 21 23  1  0
 21 24  1  0
 17 25  1  0
 12 26  1  0
 11 27  1  0
 10 28  1  0
  4 29  1  0
  3 30  1  0
  2 31  2  0
  8 32  2  0
  1 33  1  0
  1 34  1  0
  3 35  1  0
  5 36  1  0
  6 37  1  0
  6 38  1  0
  7 39  1  0
  7 40  1  0
  9 41  1  0
 13 42  1  0
 13 43  1  0
 14 44  1  0
 14 45  1  0
 15 46  1  0
 15 47  1  0
 16 48  1  0
 16 49  1  0
 18 50  1  0
 19 51  1  0
 19 52  1  0
 20 53  1  0
 20 54  1  0
 22 55  1  0
 22 56  1  0
 23 57  1  0
 23 58  1  0
 23 59  1  0
 24 60  1  0
 24 61  1  0
 24 62  1  0
 25 63  1  0
 25 64  1  0
 25 65  1  0
 26 66  1  0
 26 67  1  0
 26 68  1  0
 27 69  1  0
 27 70  1  0
 27 71  1  0
 28 72  1  0
 28 73  1  0
 28 74  1  0
 29 75  1  0
 29 76  1  0
 29 77  1  0
 30 78  1  0
 30 79  1  0
 30 80  1  0
M  END
> <Name>
SATM2017_M8

> <Clean Energy>
223.669

$$$$
SATM2017_M9
  SciTegic12132405553D

 67 71  0  0  0  0            999 V2000
   -5.4530   -1.0386    0.0022 C   0  0
   -5.5156   -2.3917   -0.5163 C   0  0
   -4.4020   -3.1010   -0.6797 C   0  0
   -3.0712   -2.4933   -0.3347 C   0  0
   -3.0366   -1.1387    0.2476 C   0  0
   -4.1816   -0.4592    0.3971 C   0  0
   -1.9350   -3.1635   -0.5696 C   0  0
   -0.6144   -2.5961   -0.3098 C   0  0
   -0.4373   -1.3906    0.2435 C   0  0
   -1.7179   -0.5340    0.7223 C   0  0  1  0  0  0
    1.0652   -0.8142    0.4581 C   0  0  2  0  0  0
    1.0727    0.7152   -0.0518 C   0  0  1  0  0  0
   -0.0980    1.5554    0.6902 C   0  0
   -1.5479    0.9615    0.3069 C   0  0
    2.2659   -1.6136   -0.3144 C   0  0
    3.7034   -0.9971    0.0736 C   0  0
    3.8767    0.5077   -0.2887 C   0  0  2  0  0  0
    2.6109    1.3485    0.3596 C   0  0  1  0  0  0
    4.0216    0.7534   -1.8332 C   0  0
    4.1305    2.2596   -2.0669 C   0  0
    3.0390    3.1774   -1.5214 C   0  0  1  0  0  0
    2.8859    2.8908    0.0045 C   0  0
    3.3848    4.6489   -1.7566 C   0  0
    5.2505    0.9419    0.3270 C   0  0
    0.6882    0.7291   -1.6415 C   0  0
    1.3921   -0.9939    2.0257 C   0  0
   -1.8996   -0.5082    2.2859 C   0  0
   -4.5181   -4.5085   -1.2248 C   0  0
   -6.7499   -2.9468   -0.8444 O   0  0
    5.0955    2.7306   -2.6781 O   0  0
   -6.4917   -0.3850    0.1463 O   0  0
   -4.1775    0.5104    0.8233 H   0  0
   -1.9692   -4.1268   -0.9935 H   0  0
    0.2179   -3.1690   -0.5949 H   0  0
    0.0565    1.5305    1.7753 H   0  0
   -0.0577    2.5963    0.3442 H   0  0
   -2.3557    1.5561    0.7516 H   0  0
   -1.6492    1.0222   -0.7658 H   0  0
    2.2510   -2.6634    0.0064 H   0  0
    2.1186   -1.5708   -1.3981 H   0  0
    3.8090   -1.0851    1.1479 H   0  0
    4.5154   -1.5674   -0.3962 H   0  0
    2.6545    1.2505    1.4439 H   0  0
    4.8972    0.2208   -2.2262 H   0  0
    3.1593    0.4054   -2.3221 H   0  0
    2.1102    2.9401   -2.0045 H   0  0
    3.8367    3.1752    0.4586 H   0  0
    2.0940    3.5181    0.4328 H   0  0
    2.5832    5.2813   -1.3500 H   0  0
    3.4889    4.8328   -2.8348 H   0  0
    4.3316    4.8840   -1.2499 H   0  0
    5.4677    1.9963    0.1355 H   0  0
    6.0467    0.3285   -0.1157 H   0  0
    5.2213    0.7740    1.4120 H   0  0
    0.6600    1.7540   -2.0008 H   0  0
   -0.2790    0.2764   -1.8294 H   0  0
    1.3961    0.1730   -2.2160 H   0  0
    2.3721   -0.6114    2.2870 H   0  0
    1.3529   -2.0629    2.2720 H   0  0
    0.6923   -0.4721    2.6251 H   0  0
   -2.7857    0.0849    2.5416 H   0  0
   -1.0539   -0.0637    2.7746 H   0  0
   -2.0331   -1.5362    2.6484 H   0  0
   -4.0149   -5.1993   -0.5324 H   0  0
   -3.9652   -4.5644   -2.1728 H   0  0
   -5.5663   -4.7966   -1.3731 H   0  0
   -7.4680   -2.2930   -0.6648 H   0  0
  1  2  1  0
  2  3  2  0
  3  4  1  0
  4  5  1  0
  5  6  2  0
  6  1  1  0
  4  7  2  0
  7  8  1  0
  8  9  2  0
  9 10  1  0
 10  5  1  0
  9 11  1  0
 11 12  1  0
 12 13  1  0
 13 14  1  0
 14 10  1  0
 11 15  1  0
 15 16  1  0
 16 17  1  0
 17 18  1  0
 18 12  1  0
 17 19  1  0
 19 20  1  0
 20 21  1  0
 21 22  1  0
 22 18  1  0
 21 23  1  0
 17 24  1  0
 12 25  1  0
 11 26  1  0
 10 27  1  0
  3 28  1  0
 20 30  2  0
  1 31  2  0
  2 29  1  0
  6 32  1  0
  7 33  1  0
  8 34  1  0
 13 35  1  0
 13 36  1  0
 14 37  1  0
 14 38  1  0
 15 39  1  0
 15 40  1  0
 16 41  1  0
 16 42  1  0
 18 43  1  0
 19 44  1  0
 19 45  1  0
 21 46  1  0
 22 47  1  0
 22 48  1  0
 23 49  1  0
 23 50  1  0
 23 51  1  0
 24 52  1  0
 24 53  1  0
 24 54  1  0
 25 55  1  0
 25 56  1  0
 25 57  1  0
 26 58  1  0
 26 59  1  0
 26 60  1  0
 27 61  1  0
 27 62  1  0
 27 63  1  0
 28 64  1  0
 28 65  1  0
 28 66  1  0
 29 67  1  0
M  END
> <Name>
SATM2017_M9

> <Clean Energy>
105.043

$$$$
RCGP2021_P2
  DSViewer          3D                             0

 81 85  0  0  0  0  0  0  0  0999 V2000
   -1.3710    1.2234   -1.3561 C   0  0
   -0.5844    1.1653   -0.0300 C   0  0
    0.1001   -0.1472    0.0458 C   0  0
   -0.7646   -1.3514    0.0592 C   0  0  1  0  0  0
   -1.5113   -1.4002   -1.3354 C   0  0  2  0  0  0
   -2.3606   -0.0069   -1.4490 C   0  0  2  0  0  0
   -3.3371    0.0886   -2.7548 C   0  0  1  0  0  0
   -2.5447   -2.5502   -1.3422 C   0  0
   -3.4791   -2.5789   -2.6049 C   0  0
   -4.3340   -1.2504   -2.6233 C   0  0  2  0  0  0
   -5.4300    1.3566   -3.7965 C   0  0
   -4.2460    1.3640   -2.6677 C   0  0
   -5.5632   -1.3020   -3.7591 C   0  0  2  0  0  0
   -6.4171    0.0915   -3.6062 C   0  0  2  0  0  0
   -7.6287    0.0684   -4.8648 C   0  0  1  0  0  0
   -6.6010   -2.5287   -3.4972 C   0  0
   -7.7132   -2.5448   -4.6274 C   0  0
   -8.6045   -1.2580   -4.7744 C   0  0  1  0  0  0
   -9.9400    1.5583   -4.1159 C   0  0
   -8.6779    1.3232   -5.1164 C   0  0
   -9.7521   -1.0460   -3.6276 C   0  0
  -10.7095    0.2145   -4.0497 C   0  0
    1.3268   -0.2310    0.1670 O   0  0
    0.0685   -2.6145    0.4300 C   0  0
   -0.4203   -1.6768   -2.4673 C   0  0
   -2.4964    0.3068   -4.1123 C   0  0
   -4.9433   -1.5530   -5.2453 C   0  0
   -9.3616   -1.5561   -6.1244 C   0  0
   -6.9474    0.1952   -2.1039 C   0  0
   -9.6919    2.0392   -2.7040 C   0  0
  -10.8101    2.6648   -4.7069 C   0  0
   -3.0299    0.0077   -0.5783 H   0  0
   -4.8108   -1.1874   -1.6501 H   0  0
   -7.0107   -0.0079   -5.7567 H   0  0
   -1.9273    2.1672   -1.3823 H   0  0
   -0.6698    1.1922   -2.1984 H   0  0
    0.1287    1.9976    0.0415 H   0  0
   -1.3350    1.2154    0.7711 H   0  0
   -1.5592   -1.1963    0.8022 H   0  0
   -3.2093   -2.4163   -0.4781 H   0  0
   -2.0132   -3.5048   -1.2472 H   0  0
   -2.9086   -2.6958   -3.5350 H   0  0
   -4.1542   -3.4326   -2.4837 H   0  0
   -6.0229    2.2747   -3.6887 H   0  0
   -4.9904    1.3307   -4.7990 H   0  0
   -3.6193    2.2594   -2.7593 H   0  0
   -4.7173    1.3798   -1.6911 H   0  0
   -7.0654   -2.4423   -2.5122 H   0  0
   -6.0530   -3.4773   -3.5487 H   0  0
   -7.1886   -2.6606   -5.5611 H   0  0
   -8.3770   -3.4114   -4.5119 H   0  0
   -9.1593    1.0971   -6.0693 H   0  0
   -8.1082    2.2552   -5.2256 H   0  0
   -9.3242   -0.8898   -2.6526 H   0  0
  -10.3735   -1.9503   -3.6006 H   0  0
  -11.1021    0.0006   -5.0369 H   0  0
  -11.5566    0.3307   -3.3609 H   0  0
   -0.5820   -3.4984    0.4561 H   0  0
    0.5171   -2.4666    1.4217 H   0  0
    0.8687   -2.7717   -0.3035 H   0  0
   -0.8813   -1.7504   -3.4341 H   0  0
    0.0826   -2.6282   -2.2695 H   0  0
    0.3256   -0.8733   -2.4848 H   0  0
   -1.8972    1.2187   -4.0246 H   0  0
   -3.1433    0.4341   -4.9523 H   0  0
   -1.8548   -0.5151   -4.3148 H   0  0
   -4.4057   -2.5083   -5.2565 H   0  0
   -4.2911   -0.7909   -5.5301 H   0  0
   -5.7162   -1.5862   -6.0044 H   0  0
  -10.0119   -0.7379   -6.4277 H   0  0
   -9.9635   -2.4663   -6.0011 H   0  0
   -8.6158   -1.7177   -6.9144 H   0  0
   -7.4247    1.1215   -1.9824 H   0  0
   -6.1563    0.1599   -1.3718 H   0  0
   -7.6319   -0.6094   -1.8738 H   0  0
  -10.6637    2.1847   -2.2134 H   0  0
   -9.1475    2.9928   -2.7263 H   0  0
   -9.1696    1.3375   -2.1581 H   0  0
  -11.7041    2.7986   -4.0822 H   0  0
  -11.1108    2.3844   -5.7259 H   0  0
  -10.2370    3.6017   -4.7361 H   0  0
  1  2  1  0  0  0
  2  3  1  0  0  0
  3  4  1  0  0  0
  4  5  1  0  0  0
  5  6  1  0  0  0
  1  6  1  0  0  0
  8  9  1  0  0  0
  9 10  1  0  0  0
  7 10  1  0  0  0
  5  8  1  0  0  0
  7  6  1  0  0  0
 11 12  1  0  0  0
 13 14  1  0  0  0
 11 14  1  0  0  0
 12  7  1  0  0  0
 16 17  1  0  0  0
 17 18  1  0  0  0
 15 18  1  0  0  0
 13 16  1  0  0  0
 15 14  1  0  0  0
 19 20  1  0  0  0
 21 22  1  0  0  0
 19 22  1  0  0  0
 20 15  1  0  0  0
 18 21  1  0  0  0
  3 23  2  0  0  0
 10 13  1  0  0  0
 19 30  1  0  0  0
 19 31  1  0  0  0
  4 24  1  0  0  0
  5 25  1  0  0  0
  6 32  1  0  0  0
 10 33  1  0  0  0
  7 26  1  0  0  0
 13 27  1  0  0  0
 14 29  1  0  0  0
 18 28  1  0  0  0
 15 34  1  0  0  0
  1 35  1  0  0  0
  1 36  1  0  0  0
  2 37  1  0  0  0
  2 38  1  0  0  0
  4 39  1  0  0  0
  8 40  1  0  0  0
  8 41  1  0  0  0
  9 42  1  0  0  0
  9 43  1  0  0  0
 11 44  1  0  0  0
 11 45  1  0  0  0
 12 46  1  0  0  0
 12 47  1  0  0  0
 16 48  1  0  0  0
 16 49  1  0  0  0
 17 50  1  0  0  0
 17 51  1  0  0  0
 20 52  1  0  0  0
 20 53  1  0  0  0
 21 54  1  0  0  0
 21 55  1  0  0  0
 22 56  1  0  0  0
 22 57  1  0  0  0
 24 58  1  0  0  0
 24 59  1  0  0  0
 24 60  1  0  0  0
 25 61  1  0  0  0
 25 62  1  0  0  0
 25 63  1  0  0  0
 26 64  1  0  0  0
 26 65  1  0  0  0
 26 66  1  0  0  0
 27 67  1  0  0  0
 27 68  1  0  0  0
 27 69  1  0  0  0
 28 70  1  0  0  0
 28 71  1  0  0  0
 28 72  1  0  0  0
 29 73  1  0  0  0
 29 74  1  0  0  0
 29 75  1  0  0  0
 30 76  1  0  0  0
 30 77  1  0  0  0
 30 78  1  0  0  0
 31 79  1  0  0  0
 31 80  1  0  0  0
 31 81  1  0  0  0
M  END
> <Clean Energy>
3734.97

$$$$
RCGP2021_P3
  SciTegic12132405553D

 83 87  0  0  0  0            999 V2000
   -4.2515   -1.4549   -6.1132 C   0  0
   -5.7116   -0.9831   -6.3993 C   0  0
   -5.8578   -0.2306   -7.7346 C   0  0  1  0  0  0
   -4.8962    1.0208   -7.6607 C   0  0  1  0  0  0
   -3.3401    0.6408   -7.4284 C   0  0  2  0  0  0
   -3.3098   -0.1858   -6.0257 C   0  0  2  0  0  0
   -1.8132   -0.5533   -5.4886 C   0  0  1  0  0  0
   -2.5115    1.9300   -7.2012 C   0  0
   -1.0232    1.6735   -6.7550 C   0  0
   -1.0448    0.9334   -5.3630 C   0  0  2  0  0  0
   -0.4041   -1.2878   -3.3550 C   0  0
   -1.8808   -1.1659   -4.0454 C   0  0
    0.4726    0.8586   -4.6617 C   0  0  2  0  0  0
    0.2881    0.1613   -3.1878 C   0  0  2  0  0  0
    1.8918   -0.0039   -2.5147 C   0  0  1  0  0  0
    1.1177    2.3327   -4.4141 C   0  0
    2.5672    2.1889   -3.7887 C   0  0
    2.6824    1.4393   -2.4121 C   0  0  1  0  0  0
    1.8399    0.0622    0.3344 C   0  0
    2.1759   -0.7230   -1.0513 C   0  0
    2.1803    2.2739   -1.0972 C   0  0
    2.5626    1.4311    0.2545 C   0  0
   -5.6535   -1.1391   -8.8446 O   0  0
   -5.1310    1.8714   -8.9423 C   0  0
   -2.7280   -0.0613   -8.7300 C   0  0
   -1.1399   -1.7260   -6.3679 C   0  0
    1.5053    0.0791   -5.6511 C   0  0
    4.2442    1.2755   -2.2763 C   0  0
   -0.7549    1.0303   -2.3472 C   0  0
    0.3986    0.3022    0.7239 C   0  0
    2.3726   -0.7770    1.4930 C   0  0
   -3.7326    0.4911   -5.2709 H   0  0
   -1.6614    1.5455   -4.7124 H   0  0
    2.3783   -0.6204   -3.2675 H   0  0
   -4.2592   -1.9722   -5.1482 H   0  0
   -3.9038   -2.1437   -6.8939 H   0  0
   -6.3913   -1.8456   -6.4033 H   0  0
   -5.9934   -0.3015   -5.5847 H   0  0
   -6.8868    0.1421   -7.8263 H   0  0
   -5.2134    1.6034   -6.7849 H   0  0
   -2.9794    2.4972   -6.3852 H   0  0
   -2.5291    2.5310   -8.1182 H   0  0
   -0.4635    1.0960   -7.5006 H   0  0
   -0.5519    2.6537   -6.6289 H   0  0
   -0.5186   -1.7311   -2.3569 H   0  0
    0.2395   -1.9338   -3.9613 H   0  0
   -2.3747   -2.1441   -4.0934 H   0  0
   -2.4852   -0.5125   -3.4262 H   0  0
    0.4815    2.9313   -3.7581 H   0  0
    1.2153    2.8462   -5.3782 H   0  0
    3.1427    1.6163   -4.4972 H   0  0
    3.0491    3.1699   -3.6873 H   0  0
    3.2592   -0.8460   -1.0069 H   0  0
    1.7110   -1.7174   -1.0401 H   0  0
    1.1251    2.4824   -1.1304 H   0  0
    2.7283    3.2245   -1.0710 H   0  0
    3.6304    1.2486    0.2254 H   0  0
    2.3359    1.9995    1.1662 H   0  0
   -4.8410   -1.6293   -8.7782 H   0  0
   -4.5326    2.7900   -8.9033 H   0  0
   -6.1951    2.1372   -9.0015 H   0  0
   -4.8572    1.2940   -9.8340 H   0  0
   -1.6816   -0.2706   -8.5942 H   0  0
   -2.8198    0.6125   -9.5877 H   0  0
   -3.2280   -0.9781   -8.9502 H   0  0
   -1.7816   -2.6129   -6.3368 H   0  0
   -0.1876   -2.0089   -5.9720 H   0  0
   -0.9994   -1.4337   -7.3786 H   0  0
    1.5759    0.6217   -6.6010 H   0  0
    1.2001   -0.9007   -5.8393 H   0  0
    2.4984    0.0085   -5.2223 H   0  0
    4.5298    0.7244   -1.3824 H   0  0
    4.7050    2.2719   -2.2464 H   0  0
    4.6154    0.7295   -3.1540 H   0  0
   -0.9355    0.5437   -1.4358 H   0  0
   -1.7115    1.1324   -2.8347 H   0  0
   -0.3793    2.0281   -2.1686 H   0  0
    0.3840    0.7942    1.7057 H   0  0
   -0.1337   -0.6563    0.7877 H   0  0
   -0.0683    0.9310    0.0536 H   0  0
    2.2148   -0.2371    2.4370 H   0  0
    3.4465   -0.9573    1.3464 H   0  0
    1.8381   -1.7365    1.5230 H   0  0
  1  2  1  0
  2  3  1  0
  3  4  1  0
  4  5  1  0
  5  6  1  0
  1  6  1  0
  8  9  1  0
  9 10  1  0
  7 10  1  0
  5  8  1  0
  7  6  1  0
 11 12  1  0
 13 14  1  0
 11 14  1  0
 12  7  1  0
 16 17  1  0
 17 18  1  0
 15 18  1  0
 13 16  1  0
 15 14  1  0
 19 20  1  0
 21 22  1  0
 19 22  1  0
 20 15  1  0
 18 21  1  0
 10 13  1  0
 19 30  1  0
 19 31  1  0
  4 24  1  0
  5 25  1  0
  6 32  1  0
 10 33  1  0
  7 26  1  0
 13 27  1  0
 14 29  1  0
 18 28  1  0
 15 34  1  0
  3 23  1  0
  1 35  1  0
  1 36  1  0
  2 37  1  0
  2 38  1  0
  3 39  1  0
  4 40  1  0
  8 41  1  0
  8 42  1  0
  9 43  1  0
  9 44  1  0
 11 45  1  0
 11 46  1  0
 12 47  1  0
 12 48  1  0
 16 49  1  0
 16 50  1  0
 17 51  1  0
 17 52  1  0
 20 53  1  0
 20 54  1  0
 21 55  1  0
 21 56  1  0
 22 57  1  0
 22 58  1  0
 23 59  1  0
 24 60  1  0
 24 61  1  0
 24 62  1  0
 25 63  1  0
 25 64  1  0
 25 65  1  0
 26 66  1  0
 26 67  1  0
 26 68  1  0
 27 69  1  0
 27 70  1  0
 27 71  1  0
 28 72  1  0
 28 73  1  0
 28 74  1  0
 29 75  1  0
 29 76  1  0
 29 77  1  0
 30 78  1  0
 30 79  1  0
 30 80  1  0
 31 81  1  0
 31 82  1  0
 31 83  1  0
M  END
> <Name>
RCGP2021_P3

> <Clean Energy>
76.9024

$$$$
RCGP2021_P4
  SciTegic12132405553D

 81 85  0  0  0  0            999 V2000
    4.7466    9.1920   -1.2807 C   0  0
    5.5847   10.2168   -0.5135 C   0  0
    7.0612   10.1159   -1.0238 C   0  0  1  0  0  0
    7.6885    8.7298   -0.7179 C   0  0
    6.7801    7.5657   -1.2294 C   0  0
    5.2443    7.7135   -1.0388 C   0  0  2  0  0  0
    4.3933    6.6323   -1.8503 C   0  0  1  0  0  0
    7.3269    6.3866   -1.5971 C   0  0
    6.5044    5.1798   -1.9755 C   0  0
    5.0349    5.2007   -1.4310 C   0  0  2  0  0  0
    1.9924    5.4047   -1.7702 C   0  0
    2.9208    6.6820   -1.3530 C   0  0
    4.1741    3.8557   -1.9437 C   0  0  2  0  0  0
    2.6143    4.0233   -1.1079 C   0  0  2  0  0  0
    1.6006    2.5383   -1.0607 C   0  0  1  0  0  0
    4.5860    2.5265   -1.5360 C   0  0
    3.5207    1.3626   -2.2465 C   0  0
    1.8211    1.7522   -2.3132 C   0  0  1  0  0  0
    0.9248    0.2115    0.0939 C   0  0
    1.8817    1.4466    0.1801 C   0  0
    0.9507    0.4619   -2.4419 C   0  0
    1.2011   -0.5044   -1.2488 C   0  0
    7.1144   10.3614   -2.4616 O   0  0
    9.1236    8.7186   -1.2900 C   0  0
    4.3950    7.0094   -3.4023 C   0  0
    4.3400    3.7407   -3.6100 C   0  0
    1.2859    2.5657   -3.5500 C   0  0
    2.6805    4.2838    0.4885 C   0  0
   -0.5740    0.6315    0.2382 C   0  0
    1.2344   -0.7445    1.2420 C   0  0
    5.1009    7.4947    0.0278 H   0  0
    5.0423    5.1780   -0.3411 H   0  0
    0.5684    2.8480   -0.8758 H   0  0
    7.8164    8.5265    0.8163 C   0  0
    3.6943    9.2811   -0.9891 H   0  0
    4.8456    9.4441   -2.3375 H   0  0
    5.1985   11.2214   -0.7308 H   0  0
    5.5262   10.0324    0.5657 H   0  0
    7.6750   10.8833   -0.5334 H   0  0
    8.3713    6.2784   -1.6333 H   0  0
    6.4873    5.1851   -3.0662 H   0  0
    7.0261    4.2658   -1.6631 H   0  0
    1.0041    5.5776   -1.3252 H   0  0
    1.8905    5.3134   -2.8555 H   0  0
    2.4691    7.6287   -1.6728 H   0  0
    2.9522    6.6829   -0.2785 H   0  0
    4.5054    2.5076   -0.4483 H   0  0
    5.6166    2.2791   -1.8212 H   0  0
    3.8052    1.0252   -3.2528 H   0  0
    3.7058    0.5345   -1.5603 H   0  0
    1.7033    1.9288    1.1462 H   0  0
    2.8981    1.0785    0.1697 H   0  0
    1.1854   -0.0492   -3.3846 H   0  0
   -0.1040    0.7593   -2.4491 H   0  0
    0.5562   -1.3883   -1.3394 H   0  0
    2.2466   -0.8238   -1.2594 H   0  0
    6.6514    9.6711   -2.9850 H   0  0
    9.6149    7.7669   -1.0492 H   0  0
    9.6948    9.5441   -0.8440 H   0  0
    9.0827    8.8468   -2.3804 H   0  0
    3.9641    8.0048   -3.5387 H   0  0
    3.7964    6.3324   -3.9657 H   0  0
    5.4199    7.0095   -3.7925 H   0  0
    5.3975    3.6076   -3.8564 H   0  0
    3.9892    4.5959   -4.0797 H   0  0
    3.8161    2.9420   -4.0703 H   0  0
    0.2067    2.7242   -3.4242 H   0  0
    1.4627    1.9781   -4.4603 H   0  0
    1.7559    3.5113   -3.6598 H   0  0
    1.6591    4.4120    0.8722 H   0  0
    3.2590    5.1640    0.7351 H   0  0
    3.1611    3.4541    0.9984 H   0  0
   -1.2039   -0.2667    0.1854 H   0  0
   -0.8699    1.3247   -0.5566 H   0  0
   -0.7152    1.1206    1.2114 H   0  0
    0.5784   -1.6230    1.1711 H   0  0
    1.0627   -0.2317    2.1984 H   0  0
    2.2845   -1.0616    1.1766 H   0  0
    8.2885    7.5538    1.0108 H   0  0
    6.8295    8.5471    1.2934 H   0  0
    8.4409    9.3269    1.2351 H   0  0
  1  2  1  0
  2  3  1  0
  3  4  1  0
  4  5  1  0
  5  6  1  0
  1  6  1  0
  8  9  1  0
  9 10  1  0
  7 10  1  0
  7  6  1  0
 11 12  1  0
 13 14  1  0
 11 14  1  0
 12  7  1  0
 16 17  1  0
 17 18  1  0
 15 18  1  0
 13 16  1  0
 15 14  1  0
 19 20  1  0
 21 22  1  0
 19 22  1  0
 20 15  1  0
 18 21  1  0
 10 13  1  0
 19 29  1  0
 19 30  1  0
  4 24  1  0
  6 31  1  0
 10 32  1  0
  7 25  1  0
 13 26  1  0
 14 28  1  0
 18 27  1  0
 15 33  1  0
  3 23  1  0
  5  8  2  0
  4 34  1  0
  1 35  1  0
  1 36  1  0
  2 37  1  0
  2 38  1  0
  3 39  1  0
  8 40  1  0
  9 41  1  0
  9 42  1  0
 11 43  1  0
 11 44  1  0
 12 45  1  0
 12 46  1  0
 16 47  1  0
 16 48  1  0
 17 49  1  0
 17 50  1  0
 20 51  1  0
 20 52  1  0
 21 53  1  0
 21 54  1  0
 22 55  1  0
 22 56  1  0
 23 57  1  0
 24 58  1  0
 24 59  1  0
 24 60  1  0
 25 61  1  0
 25 62  1  0
 25 63  1  0
 26 64  1  0
 26 65  1  0
 26 66  1  0
 27 67  1  0
 27 68  1  0
 27 69  1  0
 28 70  1  0
 28 71  1  0
 28 72  1  0
 29 73  1  0
 29 74  1  0
 29 75  1  0
 30 76  1  0
 30 77  1  0
 30 78  1  0
 34 79  1  0
 34 80  1  0
 34 81  1  0
M  END
> <Name>
RCGP2021_P4

> <Clean Energy>
173.333

$$$$
RCGP2021_P5
  SciTegic12132405553D

 81 85  0  0  0  0            999 V2000
    4.2491    2.5411   -5.8672 C   0  0
    4.5675    3.1223   -7.3017 C   0  0
    5.7715    2.3156   -7.9022 C   0  0  1  0  0  0
    5.4485    0.7811   -8.0933 C   0  0
    5.0477    0.2351   -6.6104 C   0  0  1  0  0  0
    3.8280    1.0468   -5.9082 C   0  0  1  0  0  0
    3.7386    0.4533   -4.3843 C   0  0  2  0  0  0
    4.7521   -1.3355   -6.5890 C   0  0
    4.6849   -1.7916   -5.0932 C   0  0
    3.5315   -1.1435   -4.2537 C   0  0  1  0  0  0
    2.2261    0.5228   -2.2371 C   0  0
    2.6254    1.1576   -3.5614 C   0  0
    3.7461   -1.4802   -2.6211 C   0  0  1  0  0  0
    2.6382   -0.7005   -1.8209 C   0  0
    1.5210   -1.4021   -0.9264 C   0  0  1  0  0  0
    3.8375   -2.9715   -2.1871 C   0  0
    2.5091   -3.6925   -1.8572 C   0  0
    1.8784   -2.9396   -0.5665 C   0  0  1  0  0  0
    2.0513   -0.5529    1.5654 C   0  0  1  0  0  0
    0.9967   -0.4920    0.3772 C   0  0  2  0  0  0
    2.8867   -2.9087    0.7130 C   0  0
    2.2933   -2.1004    1.9539 C   0  0
    6.1802    2.9021   -9.1534 O   0  0
    4.4092    0.5154   -9.2469 C   0  0
    6.7253    0.0745   -8.5826 C   0  0
    2.4032    0.9970   -6.6622 C   0  0
    2.1541   -1.7451   -4.7648 C   0  0
    0.6543   -3.8301   -0.1918 C   0  0
    3.4212    0.1203    1.2389 C   0  0
   -0.3876   -0.9141    0.9873 C   0  0
    5.1891   -1.0087   -2.1396 C   0  0
    5.9363    0.4158   -5.9904 H   0  0
    4.7017    0.6534   -3.9583 H   0  0
    0.7062   -1.4027   -1.6620 H   0  0
    5.1758    2.6226   -5.2829 H   0  0
    3.4600    3.1297   -5.3832 H   0  0
    3.6964    3.0668   -7.9650 H   0  0
    4.8680    4.1721   -7.1888 H   0  0
    6.5997    2.3998   -7.1852 H   0  0
    5.5958   -1.8677   -7.0378 H   0  0
    3.8354   -1.5760   -7.1432 H   0  0
    4.5966   -2.8832   -5.0241 H   0  0
    5.6471   -1.4828   -4.6852 H   0  0
    1.3936    0.9520   -1.7713 H   0  0
    1.6955    1.0384   -4.1171 H   0  0
    2.7881    2.2381   -3.4668 H   0  0
    4.3376   -2.9830   -1.2578 H   0  0
    4.4846   -3.5093   -2.8883 H   0  0
    1.8154   -3.6932   -2.7036 H   0  0
    2.7397   -4.7265   -1.5699 H   0  0
    1.6383    0.0004    2.4195 H   0  0
    0.8249    0.5396    0.0562 H   0  0
    3.8124   -2.4085    0.4468 H   0  0
    3.1139   -3.9432    1.0006 H   0  0
    1.3565   -2.5690    2.2696 H   0  0
    3.0075   -2.1404    2.7868 H   0  0
    5.4420    2.8952   -9.8052 H   0  0
    4.2471   -0.5653   -9.3511 H   0  0
    4.8225    0.9094  -10.1846 H   0  0
    3.4757    0.9978   -9.0666 H   0  0
    6.5400   -0.9996   -8.7035 H   0  0
    7.5281    0.2296   -7.8488 H   0  0
    7.0242    0.5005   -9.5500 H   0  0
    1.6692    1.5763   -6.0935 H   0  0
    2.0548   -0.0076   -6.7671 H   0  0
    2.4641    1.4288   -7.6374 H   0  0
    1.3180   -1.3104   -4.2050 H   0  0
    2.1625   -2.8287   -4.6124 H   0  0
    2.0146   -1.5577   -5.8145 H   0  0
    0.1453   -3.4754    0.6737 H   0  0
    1.0150   -4.8464    0.0153 H   0  0
   -0.0424   -3.8571   -1.0402 H   0  0
    4.0708    0.0533    2.1217 H   0  0
    3.2522    1.1763    0.9889 H   0  0
    3.9127   -0.3674    0.4061 H   0  0
   -1.1562   -0.8593    0.2046 H   0  0
   -0.6408   -0.2132    1.7941 H   0  0
   -0.3705   -1.9033    1.3976 H   0  0
    5.9668   -1.5617   -2.6765 H   0  0
    5.2824   -1.2187   -1.0652 H   0  0
    5.3343    0.0601   -2.2914 H   0  0
  1  2  1  0
  2  3  1  0
  3  4  1  0
  4  5  1  0
  5  6  1  0
  1  6  1  0
  8  9  1  0
  9 10  1  0
  7 10  1  0
  5  8  1  0
  7  6  1  0
 11 12  1  0
 13 14  1  0
 11 14  2  0
 12  7  1  0
 10 13  1  0
 16 17  1  0
 17 18  1  0
 15 18  1  0
 13 16  1  0
 15 14  1  0
 19 20  1  0
 21 22  1  0
 19 22  1  0
 20 15  1  0
 18 21  1  0
  4 24  1  0
  4 25  1  0
  3 23  1  0
  5 32  1  0
  7 33  1  0
 15 34  1  0
 18 28  1  0
 20 30  1  0
 19 29  1  0
  6 26  1  0
 10 27  1  0
 13 31  1  0
  1 35  1  0
  1 36  1  0
  2 37  1  0
  2 38  1  0
  3 39  1  0
  8 40  1  0
  8 41  1  0
  9 42  1  0
  9 43  1  0
 11 44  1  0
 12 45  1  0
 12 46  1  0
 16 47  1  0
 16 48  1  0
 17 49  1  0
 17 50  1  0
 19 51  1  0
 20 52  1  0
 21 53  1  0
 21 54  1  0
 22 55  1  0
 22 56  1  0
 23 57  1  0
 24 58  1  0
 24 59  1  0
 24 60  1  0
 25 61  1  0
 25 62  1  0
 25 63  1  0
 26 64  1  0
 26 65  1  0
 26 66  1  0
 27 67  1  0
 27 68  1  0
 27 69  1  0
 28 70  1  0
 28 71  1  0
 28 72  1  0
 29 73  1  0
 29 74  1  0
 29 75  1  0
 30 76  1  0
 30 77  1  0
 30 78  1  0
 31 79  1  0
 31 80  1  0
 31 81  1  0
M  END
> <Name>
RCGP2021_P5

> <Clean Energy>
128.132

$$$$
RCGP2021_P6 (mistura com P5)
  SciTegic12132405553D

 81 85  0  0  0  0            999 V2000
   -3.8212   -0.2542   -4.8879 C   0  0
   -5.2534   -0.8512   -4.5883 C   0  0
   -5.3202   -2.2961   -5.1958 C   0  0  1  0  0  0
   -4.2702   -3.2836   -4.5494 C   0  0
   -2.8142   -2.5972   -4.8074 C   0  0  1  0  0  0
   -2.6808   -1.0819   -4.2350 C   0  0  1  0  0  0
   -1.2294   -0.5466   -4.7713 C   0  0  2  0  0  0
   -1.6039   -3.4981   -4.2785 C   0  0
   -0.2739   -2.8982   -4.8457 C   0  0
    0.0533   -1.4443   -4.3650 C   0  0  1  0  0  0
    0.4566    1.4520   -4.4942 C   0  0
   -0.9610    0.9216   -4.3278 C   0  0
    1.3257   -0.8153   -5.2593 C   0  0  1  0  0  0
    1.5186    0.6781   -4.8202 C   0  0
    2.8440    1.2185   -4.1586 C   0  0  1  0  0  0
    2.6831   -1.5950   -5.2723 C   0  0
    3.6968   -1.2473   -4.1487 C   0  0
    4.0985    0.3116   -4.3652 C   0  0  1  0  0  0
    3.7981    3.0207   -5.8840 C   0  0
    3.2384    2.7585   -4.4426 C   0  0
    4.7179    0.6059   -5.8458 C   0  0
    5.0697    2.1243   -6.0411 C   0  0
   -6.6544   -2.8239   -5.0615 O   0  0
   -4.6197   -3.6558   -3.0591 C   0  0
   -4.3516   -4.6301   -5.2904 C   0  0
   -2.8420   -0.8986   -2.6410 C   0  0
    0.4400   -1.5106   -2.8271 C   0  0
    5.1923    0.6429   -3.2983 C   0  0
    2.7658    2.7586   -7.0201 C   0  0
    1.0035   -0.8809   -6.8171 C   0  0
   -2.7230   -2.5238   -5.8995 H   0  0
   -1.2949   -0.6079   -5.8395 H   0  0
    2.5647    1.1458   -3.0996 H   0  0
    4.1972    4.4889   -6.0009 C   0  0
   -3.6899   -0.2857   -5.9781 H   0  0
   -3.7612    0.7854   -4.5433 H   0  0
   -5.4671   -0.8742   -3.5133 H   0  0
   -6.0002   -0.2228   -5.0907 H   0  0
   -5.0829   -2.2029   -6.2644 H   0  0
   -1.6934   -4.5045   -4.6974 H   0  0
   -1.6029   -3.5601   -3.1825 H   0  0
    0.5784   -3.5461   -4.6046 H   0  0
   -0.4297   -2.8965   -5.9243 H   0  0
    0.6394    2.3962   -4.0747 H   0  0
   -1.0468    0.9463   -3.2416 H   0  0
   -1.7118    1.6241   -4.7096 H   0  0
    3.1969   -1.2881   -6.1416 H   0  0
    2.4834   -2.6650   -5.3971 H   0  0
    3.2789   -1.4199   -3.1519 H   0  0
    4.5982   -1.8594   -4.2817 H   0  0
    4.0444    3.0356   -3.7580 H   0  0
    2.3745    3.4033   -4.2468 H   0  0
    3.9948    0.3444   -6.6170 H   0  0
    5.6198   -0.0048   -5.9794 H   0  0
    5.8012    2.4147   -5.2800 H   0  0
    5.5032    2.2882   -7.0362 H   0  0
   -6.9234   -2.8689   -4.1152 H   0  0
   -3.8739   -4.3637   -2.6746 H   0  0
   -5.6092   -4.1311   -3.0424 H   0  0
   -4.6524   -2.7979   -2.4271 H   0  0
   -3.6168   -5.3328   -4.8792 H   0  0
   -4.1491   -4.4682   -6.3580 H   0  0
   -5.3598   -5.0486   -5.1668 H   0  0
   -2.7310    0.1590   -2.3824 H   0  0
   -2.1125   -1.4700   -2.1091 H   0  0
   -3.8094   -1.2081   -2.3098 H   0  0
    0.6710   -0.5081   -2.4491 H   0  0
    1.3214   -2.1493   -2.7109 H   0  0
   -0.3581   -1.9348   -2.2442 H   0  0
    5.5161    1.6846   -3.3610 H   0  0
    6.0591   -0.0109   -3.4633 H   0  0
    4.7797    0.4565   -2.2977 H   0  0
    3.2361    2.9815   -7.9869 H   0  0
    1.8973    3.4150   -6.8753 H   0  0
    2.4366    1.7224   -7.0195 H   0  0
    0.8893   -1.9222   -7.1363 H   0  0
    1.8444   -0.4317   -7.3643 H   0  0
    0.1004   -0.3249   -7.0649 H   0  0
    4.6289    4.6706   -6.9947 H   0  0
    4.9403    4.7257   -5.2268 H   0  0
    3.3080    5.1195   -5.8639 H   0  0
  1  2  1  0
  2  3  1  0
  3  4  1  0
  4  5  1  0
  5  6  1  0
  1  6  1  0
  8  9  1  0
  9 10  1  0
  7 10  1  0
  5  8  1  0
  7  6  1  0
 11 12  1  0
 13 14  1  0
 11 14  2  0
 12  7  1  0
 10 13  1  0
 16 17  1  0
 17 18  1  0
 15 18  1  0
 13 16  1  0
 15 14  1  0
 19 20  1  0
 21 22  1  0
 19 22  1  0
 20 15  1  0
 18 21  1  0
  4 24  1  0
  4 25  1  0
  3 23  1  0
  5 31  1  0
  7 32  1  0
 15 33  1  0
 18 28  1  0
 19 29  1  0
  6 26  1  0
 10 27  1  0
 13 30  1  0
 19 34  1  0
  1 35  1  0
  1 36  1  0
  2 37  1  0
  2 38  1  0
  3 39  1  0
  8 40  1  0
  8 41  1  0
  9 42  1  0
  9 43  1  0
 11 44  1  0
 12 45  1  0
 12 46  1  0
 16 47  1  0
 16 48  1  0
 17 49  1  0
 17 50  1  0
 20 51  1  0
 20 52  1  0
 21 53  1  0
 21 54  1  0
 22 55  1  0
 22 56  1  0
 23 57  1  0
 24 58  1  0
 24 59  1  0
 24 60  1  0
 25 61  1  0
 25 62  1  0
 25 63  1  0
 26 64  1  0
 26 65  1  0
 26 66  1  0
 27 67  1  0
 27 68  1  0
 27 69  1  0
 28 70  1  0
 28 71  1  0
 28 72  1  0
 29 73  1  0
 29 74  1  0
 29 75  1  0
 30 76  1  0
 30 77  1  0
 30 78  1  0
 34 79  1  0
 34 80  1  0
 34 81  1  0
M  END
> <Name>
RCGP2021_P6 (mistura com P5)

> <Clean Energy>
111.583

$$$$
RCGP2021_P8
  SciTegic12132405553D

 80 83  0  0  0  0            999 V2000
   -6.4202    4.0105   -1.5801 C   0  0
   -7.4719    5.1444   -1.6880 C   0  0
   -6.9163    6.3610   -0.9038 C   0  0  1  0  0  0
   -5.6013    6.8578   -1.5427 C   0  0
   -4.5890    5.7389   -1.6312 C   0  0
   -5.0390    4.4077   -2.1950 C   0  0  1  0  0  0
   -3.9630    3.2433   -1.9125 C   0  0  2  0  0  0
   -3.3143    5.9909   -1.3170 C   0  0
   -2.2441    4.9287   -1.3913 C   0  0
   -2.5897    3.7511   -2.3383 C   0  0  1  0  0  0
   -3.2352    0.8485   -2.4037 C   0  0
   -4.3499    1.8986   -2.6753 C   0  0
   -1.5416    2.6274   -2.1629 C   0  0  1  0  0  0
   -1.8456    1.3772   -2.9243 C   0  0  1  0  0  0
    0.5693    1.5828   -2.8169 C   0  0
   -0.5443    0.5619   -2.3951 C   0  0  2  0  0  0
   -0.0879    2.9950   -2.5895 C   0  0
   -7.8655    7.4240   -0.9233 O   0  0
   -5.2170    4.6607   -3.7638 C   0  0
   -1.9148    1.5159   -4.5288 C   0  0
   -3.8924    3.0289   -0.8375 H   0  0
   -2.6170    4.0527   -3.3876 H   0  0
   -1.5225    2.3064   -1.1128 H   0  0
   -0.2233   -0.9288   -2.9147 C   0  0  2  0  0  0
   -1.3298   -1.9538   -2.4989 C   0  0
    1.1614   -1.4095   -2.3257 C   0  0
    1.5747   -2.8004   -2.9217 C   0  0
    2.9714   -3.2940   -2.4248 C   0  0  2  0  0  0
    3.2058   -4.5997   -3.3246 C   0  0
    4.5778   -5.3152   -3.2318 C   0  0
    2.9759   -3.4631   -0.7895 C   0  0
    1.9417   -4.5282   -0.3246 C   0  0
    4.3407   -3.8738   -0.1881 C   0  0
   -0.6163    0.5620   -1.2992 H   0  0
   -6.2758    3.8199   -0.5078 H   0  0
   -6.7913    3.0995   -2.0641 H   0  0
   -7.6612    5.4180   -2.7332 H   0  0
   -8.4096    4.8106   -1.2240 H   0  0
   -6.7275    6.0524    0.1334 H   0  0
   -5.8555    7.1660   -2.5660 H   0  0
   -5.1858    7.7140   -0.9951 H   0  0
   -3.0559    6.9564   -0.9657 H   0  0
   -1.2709    5.3785   -1.6255 H   0  0
   -2.1837    4.5083   -0.3783 H   0  0
   -3.1745    0.7138   -1.3146 H   0  0
   -3.4769   -0.1044   -2.8779 H   0  0
   -4.4221    2.0739   -3.7474 H   0  0
   -5.3135    1.5246   -2.3097 H   0  0
    1.5738    1.4333   -2.3987 H   0  0
    0.6398    1.4904   -3.9019 H   0  0
    0.4081    3.6972   -1.9057 H   0  0
   -0.1226    3.4254   -3.5986 H   0  0
   -8.0327    7.6940   -1.8609 H   0  0
   -5.5713    3.7476   -4.2539 H   0  0
   -4.2587    4.9583   -4.2042 H   0  0
   -5.9444    5.4572   -3.9464 H   0  0
   -2.0841    0.5195   -4.9581 H   0  0
   -0.9932    1.9245   -4.9465 H   0  0
   -2.7373    2.1746   -4.8216 H   0  0
   -0.1438   -0.8980   -4.0093 H   0  0
   -1.0937   -2.9531   -2.8754 H   0  0
   -2.2867   -1.6534   -2.9155 H   0  0
   -1.3989   -1.9844   -1.4024 H   0  0
    1.9454   -0.7010   -2.6083 H   0  0
    1.0906   -1.4562   -1.2319 H   0  0
    0.8275   -3.5607   -2.6832 H   0  0
    1.6292   -2.6837   -4.0124 H   0  0
    3.7226   -2.5398   -2.6959 H   0  0
    2.4139   -5.3268   -3.1001 H   0  0
    3.1033   -4.2819   -4.3717 H   0  0
    4.5894   -6.1580   -3.9372 H   0  0
    4.7410   -5.6973   -2.2289 H   0  0
    5.3770   -4.6079   -3.4951 H   0  0
    2.7218   -2.4940   -0.3463 H   0  0
    0.9344   -4.2565   -0.6649 H   0  0
    1.9491   -4.5808    0.7723 H   0  0
    2.2150   -5.5097   -0.7368 H   0  0
    5.1016   -3.1323   -0.4679 H   0  0
    4.6355   -4.8528   -0.5463 H   0  0
    4.2512   -3.9121    0.9061 H   0  0
  1  2  1  0
  2  3  1  0
  3  4  1  0
  4  5  1  0
  5  6  1  0
  1  6  1  0
  8  9  1  0
  9 10  1  0
  7 10  1  0
  7  6  1  0
 11 12  1  0
 13 14  1  0
 11 14  1  0
 12  7  1  0
 10 13  1  0
 15 16  1  0
 15 17  1  0
 16 14  1  0
 13 17  1  0
  3 18  1  0
  6 19  1  0
 14 20  1  0
  7 21  1  0
  5  8  2  0
 10 22  1  0
 13 23  1  0
 16 24  1  0
 24 26  1  0
 26 27  1  0
 27 28  1  0
 28 29  1  0
 29 30  1  0
 31 32  1  0
 31 33  1  0
 24 25  1  0
 16 34  1  0
 28 31  1  0
  1 35  1  0
  1 36  1  0
  2 37  1  0
  2 38  1  0
  3 39  1  0
  4 40  1  0
  4 41  1  0
  8 42  1  0
  9 43  1  0
  9 44  1  0
 11 45  1  0
 11 46  1  0
 12 47  1  0
 12 48  1  0
 15 49  1  0
 15 50  1  0
 17 51  1  0
 17 52  1  0
 18 53  1  0
 19 54  1  0
 19 55  1  0
 19 56  1  0
 20 57  1  0
 20 58  1  0
 20 59  1  0
 24 60  1  0
 25 61  1  0
 25 62  1  0
 25 63  1  0
 26 64  1  0
 26 65  1  0
 27 66  1  0
 27 67  1  0
 28 68  1  0
 29 69  1  0
 29 70  1  0
 30 71  1  0
 30 72  1  0
 30 73  1  0
 31 74  1  0
 32 75  1  0
 32 76  1  0
 32 77  1  0
 33 78  1  0
 33 79  1  0
 33 80  1  0
M  END
> <Name>
RCGP2021_P8

> <Clean Energy>
112.528

$$$$
RCGP2021_P9
  SciTegic12132405553D

 82 86  0  0  0  0            999 V2000
   -9.6211   -0.6497   -3.1411 C   0  0
  -10.6535   -1.2992   -4.0869 C   0  0
  -10.7269   -2.7463   -3.7735 C   0  0
   -9.4846   -3.5333   -3.9597 C   0  0  1  0  0  0
   -8.4236   -2.9769   -2.9264 C   0  0  2  0  0  0
   -8.2316   -1.3913   -3.2753 C   0  0  2  0  0  0
   -7.0525   -0.6468   -2.4258 C   0  0  1  0  0  0
   -7.0538   -3.6516   -3.1652 C   0  0
   -5.8717   -3.0437   -2.3303 C   0  0
   -5.6782   -1.5374   -2.7677 C   0  0  2  0  0  0
   -5.4687    1.4883   -2.3566 C   0  0
   -6.8228    0.8056   -2.9702 C   0  0
   -4.2656   -0.8762   -2.1629 C   0  0  2  0  0  0
   -4.1504    0.6454   -2.7628 C   0  0  2  0  0  0
   -2.7228    1.3562   -2.0420 C   0  0  1  0  0  0
   -2.9466   -1.6842   -2.6600 C   0  0
   -1.6474   -1.0386   -2.0284 C   0  0
   -1.3524    0.4826   -2.3513 C   0  0  1  0  0  0
   -1.5873    3.3464   -3.7418 C   0  0
   -2.2727    2.9250   -2.3268 C   0  0
   -0.8019    0.8084   -3.8605 C   0  0
   -0.3841    2.3911   -3.9559 C   0  0
  -11.7921   -3.2859   -3.4566 O   0  0
   -9.7888   -5.0585   -3.8690 C   0  0
   -8.9322   -3.3358   -1.4567 C   0  0
   -7.4719   -0.4201   -0.8874 C   0  0
   -4.2570   -0.9584   -0.5358 C   0  0
   -0.1531    0.8402   -1.3424 C   0  0
   -4.1807    0.5619   -4.3577 C   0  0
   -2.4243    3.3540   -5.0001 C   0  0
   -1.1273    4.7977   -3.6294 C   0  0
   -7.9076   -1.3516   -4.3239 H   0  0
   -5.5772   -1.5492   -3.8479 H   0  0
   -2.9563    1.2847   -0.9822 H   0  0
    1.0488    0.0792   -1.6223 O   0  0
   -9.5221    0.4059   -3.4178 H   0  0
   -9.9752   -0.7216   -2.1060 H   0  0
  -11.6347   -0.8152   -3.9918 H   0  0
  -10.2504   -1.1817   -5.1027 H   0  0
   -9.0707   -3.2933   -4.9489 H   0  0
   -6.7824   -3.5062   -4.2193 H   0  0
   -7.1463   -4.7248   -2.9586 H   0  0
   -6.0466   -3.1236   -1.2496 H   0  0
   -4.9717   -3.6083   -2.5949 H   0  0
   -5.3698    2.5013   -2.7691 H   0  0
   -5.5422    1.5521   -1.2658 H   0  0
   -7.7072    1.4162   -2.7507 H   0  0
   -6.7091    0.7511   -4.0467 H   0  0
   -2.8760   -1.6823   -3.7498 H   0  0
   -3.0116   -2.7219   -2.3112 H   0  0
   -1.7725   -1.1020   -0.9602 H   0  0
   -0.7600   -1.6250   -2.2927 H   0  0
   -1.4821    3.1235   -1.6028 H   0  0
   -3.1189    3.5896   -2.1092 H   0  0
   -1.5270    0.5610   -4.6158 H   0  0
    0.1015    0.2079   -4.0279 H   0  0
    0.3386    2.5770   -3.1716 H   0  0
    0.0854    2.6315   -4.9188 H   0  0
   -8.8676   -5.6347   -4.0271 H   0  0
  -10.5180   -5.3230   -4.6467 H   0  0
  -10.2094   -5.3051   -2.8867 H   0  0
   -8.2287   -3.0062   -0.7162 H   0  0
   -9.0316   -4.4208   -1.3561 H   0  0
   -9.9045   -2.8669   -1.2631 H   0  0
   -8.3923    0.1717   -0.8469 H   0  0
   -6.7218    0.1252   -0.3574 H   0  0
   -7.6259   -1.3416   -0.3813 H   0  0
   -4.3225   -2.0079   -0.2259 H   0  0
   -5.0508   -0.4273   -0.1140 H   0  0
   -3.3525   -0.5331   -0.1155 H   0  0
    0.1105    1.8925   -1.4012 H   0  0
   -0.4844    0.6277   -0.3174 H   0  0
   -4.1903    1.5358   -4.7418 H   0  0
   -5.0630    0.0740   -4.7404 H   0  0
   -3.3262    0.0198   -4.7380 H   0  0
   -1.7997    3.7147   -5.8280 H   0  0
   -3.2834    4.0263   -4.8707 H   0  0
   -2.7417    2.4045   -5.2410 H   0  0
   -0.6042    5.0869   -4.5513 H   0  0
   -0.4464    4.8966   -2.7725 H   0  0
   -2.0018    5.4463   -3.4823 H   0  0
    0.9128   -0.8848   -1.4898 H   0  0
  1  2  1  0
  2  3  1  0
  3  4  1  0
  4  5  1  0
  5  6  1  0
  1  6  1  0
  8  9  1  0
  9 10  1  0
  7 10  1  0
  5  8  1  0
  7  6  1  0
 11 12  1  0
 13 14  1  0
 11 14  1  0
 12  7  1  0
 16 17  1  0
 17 18  1  0
 15 18  1  0
 13 16  1  0
 15 14  1  0
 19 20  1  0
 21 22  1  0
 19 22  1  0
 20 15  1  0
 18 21  1  0
  3 23  2  0
 10 13  1  0
 19 30  1  0
 19 31  1  0
  4 24  1  0
  5 25  1  0
  6 32  1  0
 10 33  1  0
  7 26  1  0
 13 27  1  0
 14 29  1  0
 18 28  1  0
 15 34  1  0
 28 35  1  0
  1 36  1  0
  1 37  1  0
  2 38  1  0
  2 39  1  0
  4 40  1  0
  8 41  1  0
  8 42  1  0
  9 43  1  0
  9 44  1  0
 11 45  1  0
 11 46  1  0
 12 47  1  0
 12 48  1  0
 16 49  1  0
 16 50  1  0
 17 51  1  0
 17 52  1  0
 20 53  1  0
 20 54  1  0
 21 55  1  0
 21 56  1  0
 22 57  1  0
 22 58  1  0
 24 59  1  0
 24 60  1  0
 24 61  1  0
 25 62  1  0
 25 63  1  0
 25 64  1  0
 26 65  1  0
 26 66  1  0
 26 67  1  0
 27 68  1  0
 27 69  1  0
 27 70  1  0
 28 71  1  0
 28 72  1  0
 29 73  1  0
 29 74  1  0
 29 75  1  0
 30 76  1  0
 30 77  1  0
 30 78  1  0
 31 79  1  0
 31 80  1  0
 31 81  1  0
 35 82  1  0
M  END
> <Name>
RCGP2021_P9

> <Clean Energy>
96.0905

$$$$
RCGP2021_P11
  SciTegic12132405553D

 82 86  0  0  0  0            999 V2000
   -9.5069   -0.8658   -1.9574 C   0  0
  -10.6602   -1.6446   -2.6238 C   0  0
  -10.5563   -3.0669   -2.2194 C   0  0
   -9.3229   -3.7861   -2.6186 C   0  0  1  0  0  0
   -8.1165   -3.0917   -1.8663 C   0  0  2  0  0  0
   -8.1225   -1.5274   -2.3394 C   0  0  2  0  0  0
   -6.8543   -0.6508   -1.8038 C   0  0  1  0  0  0
   -6.7777   -3.6954   -2.3488 C   0  0
   -5.4982   -2.9554   -1.8178 C   0  0
   -5.5150   -1.4771   -2.3739 C   0  0  2  0  0  0
   -5.4613    1.5796   -2.2011 C   0  0
   -6.8548    0.7684   -2.4710 C   0  0
   -4.0629   -0.6840   -2.1206 C   0  0  2  0  0  0
   -4.1940    0.7934   -2.8244 C   0  0  2  0  0  0
   -2.7095    1.6464   -2.4664 C   0  0  1  0  0  0
   -2.8116   -1.4423   -2.8333 C   0  0
   -1.4652   -0.6653   -2.5268 C   0  0
   -1.3761    0.8332   -2.9972 C   0  0  1  0  0  0
   -2.0759    3.5689   -4.4834 C   0  0  1  0  0  0
   -2.4362    3.2129   -2.9344 C   0  0
   -1.1610    1.0742   -4.6045 C   0  0
   -0.8772    2.6673   -4.8772 C   0  0
  -11.4884   -3.6478   -1.6537 O   0  0
   -9.4850   -5.3165   -2.3791 C   0  0
   -8.2813   -3.3742   -0.3044 C   0  0
   -6.9635   -0.3378   -0.2276 C   0  0
   -3.7139   -0.6429   -0.5297 C   0  0
   -0.0480    1.2999   -2.2877 C   0  0
   -4.5457    0.5847   -4.3674 C   0  0
   -3.1745    3.4111   -5.5596 C   0  0
   -1.6850    5.0539   -4.5090 C   0  0
   -8.0262   -1.5443   -3.4333 H   0  0
   -5.6379   -1.5634   -3.4481 H   0  0
   -2.7173    1.6413   -1.3787 H   0  0
   -2.7201    3.7794   -6.8885 O   0  0
   -9.5481    0.1711   -2.3093 H   0  0
   -9.6324   -0.8844   -0.8684 H   0  0
  -11.6342   -1.2171   -2.3508 H   0  0
  -10.4866   -1.5758   -3.7069 H   0  0
   -9.1420   -3.5924   -3.6851 H   0  0
   -6.7410   -3.6102   -3.4432 H   0  0
   -6.7437   -4.7543   -2.0655 H   0  0
   -5.4402   -2.9667   -0.7218 H   0  0
   -4.6312   -3.4803   -2.2324 H   0  0
   -5.5289    2.5625   -2.6863 H   0  0
   -5.3122    1.7213   -1.1254 H   0  0
   -7.7193    1.3369   -2.1069 H   0  0
   -6.9622    0.6401   -3.5419 H   0  0
   -2.9654   -1.5184   -3.9120 H   0  0
   -2.7218   -2.4526   -2.4160 H   0  0
   -1.3650   -0.6543   -1.4542 H   0  0
   -0.6004   -1.2051   -2.9340 H   0  0
   -1.5309    3.5065   -2.4005 H   0  0
   -3.2651    3.8441   -2.5886 H   0  0
   -2.0037    0.7314   -5.1809 H   0  0
   -0.2694    0.5137   -4.9133 H   0  0
   -0.0294    2.9467   -4.2642 H   0  0
   -0.6207    2.8635   -5.9264 H   0  0
   -8.5754   -5.8439   -2.6953 H   0  0
  -10.3371   -5.6808   -2.9689 H   0  0
   -9.6734   -5.5178   -1.3177 H   0  0
   -7.4670   -2.9483    0.2504 H   0  0
   -8.2746   -4.4533   -0.1228 H   0  0
   -9.2254   -2.9544    0.0630 H   0  0
   -7.8982    0.1964   -0.0286 H   0  0
   -6.1646    0.2912    0.0988 H   0  0
   -6.9385   -1.2276    0.3532 H   0  0
   -3.6319   -1.6682   -0.1505 H   0  0
   -4.4427   -0.1337    0.0167 H   0  0
   -2.7788   -0.1299   -0.3354 H   0  0
    0.1685    2.3526   -2.4580 H   0  0
    0.7878    0.6957   -2.6651 H   0  0
   -0.1545    1.1382   -1.2067 H   0  0
   -4.7114    1.5242   -4.8005 H   0  0
   -5.4466    0.0136   -4.5244 H   0  0
   -3.7473    0.0708   -4.8850 H   0  0
   -3.4452    2.4261   -5.6242 H   0  0
   -4.0438    4.0275   -5.2943 H   0  0
   -1.3582    5.3343   -5.5165 H   0  0
   -0.8631    5.2221   -3.7996 H   0  0
   -2.5521    5.6628   -4.2192 H   0  0
   -2.5235    4.7397   -6.9608 H   0  0
  1  2  1  0
  2  3  1  0
  4  3  1  0
  5  4  1  0
  5  6  1  0
  6  1  1  0
  8  9  1  0
 10  9  1  0
  7 10  1  0
  5  8  1  0
  6  7  1  0
 11 12  1  0
 13 14  1  0
 14 11  1  0
  7 12  1  0
 16 17  1  0
 18 17  1  0
 15 18  1  0
 13 16  1  0
 14 15  1  0
 19 20  1  0
 21 22  1  0
 19 22  1  0
 15 20  1  0
 18 21  1  0
  3 23  2  0
 10 13  1  0
 19 30  1  0
 19 31  1  0
  4 24  1  0
  5 25  1  0
  6 32  1  0
 10 33  1  0
  7 26  1  0
 13 27  1  0
 14 29  1  0
 18 28  1  0
 15 34  1  0
 30 35  1  0
  1 36  1  0
  1 37  1  0
  2 38  1  0
  2 39  1  0
  4 40  1  0
  8 41  1  0
  8 42  1  0
  9 43  1  0
  9 44  1  0
 11 45  1  0
 11 46  1  0
 12 47  1  0
 12 48  1  0
 16 49  1  0
 16 50  1  0
 17 51  1  0
 17 52  1  0
 20 53  1  0
 20 54  1  0
 21 55  1  0
 21 56  1  0
 22 57  1  0
 22 58  1  0
 24 59  1  0
 24 60  1  0
 24 61  1  0
 25 62  1  0
 25 63  1  0
 25 64  1  0
 26 65  1  0
 26 66  1  0
 26 67  1  0
 27 68  1  0
 27 69  1  0
 27 70  1  0
 28 71  1  0
 28 72  1  0
 28 73  1  0
 29 74  1  0
 29 75  1  0
 29 76  1  0
 30 77  1  0
 30 78  1  0
 31 79  1  0
 31 80  1  0
 31 81  1  0
 35 82  1  0
M  END
> <Name>
RCGP2021_P11

> <Clean Energy>
96.8868

$$$$
RCGP2021_P12
  SciTegic12132405553D

 84 88  0  0  0  0            999 V2000
   -2.2549    0.9936   -3.6284 C   0  0
   -2.8107    0.3150   -4.9194 C   0  0
   -2.9461   -1.2136   -4.7936 C   0  0  1  0  0  0
   -1.5041   -1.7746   -4.4731 C   0  0  1  0  0  0
   -0.8560   -1.1816   -3.1135 C   0  0  2  0  0  0
   -0.8047    0.4310   -3.3357 C   0  0  2  0  0  0
   -0.0425    1.2538   -2.1500 C   0  0  1  0  0  0
    0.6125   -1.6573   -2.9786 C   0  0
    1.4094   -0.9737   -1.8046 C   0  0
    1.4912    0.5735   -2.0968 C   0  0  2  0  0  0
    1.1282    3.5602   -1.5283 C   0  0
    0.1311    2.7620   -2.5485 C   0  0
    2.5484    1.3578   -1.0634 C   0  0  2  0  0  0
    2.6127    2.9261   -1.5406 C   0  0  2  0  0  0
    3.6354    3.7503   -0.3916 C   0  0  1  0  0  0
    4.0640    0.7691   -1.1558 C   0  0
    5.0003    1.5261   -0.1235 C   0  0
    5.1386    3.0826   -0.2916 C   0  0  1  0  0  0
    4.9389    5.9874   -1.5845 C   0  0  1  0  0  0
    3.9214    5.3761   -0.4660 C   0  0
    6.0742    3.5879   -1.5351 C   0  0
    6.2718    5.2115   -1.4363 C   0  0
   -3.9944   -1.5460   -3.8503 O   0  0
   -1.5911   -3.3281   -4.4794 C   0  0
   -1.6275   -1.7412   -1.8276 C   0  0
   -0.9337    1.3162   -0.8068 C   0  0
    2.0791    1.1418    0.4813 C   0  0
    5.8963    3.4746    1.0337 C   0  0
    3.0737    2.9697   -3.0665 C   0  0
    4.5502    5.9809   -3.0575 C   0  0
    5.1275    7.4738   -1.2826 C   0  0
   -0.1978    0.5891   -4.2376 H   0  0
    1.9038    0.6640   -3.0969 H   0  0
    3.1045    3.5658    0.5398 H   0  0
    3.3200    6.6856   -3.2642 O   0  0
   -2.1975    2.0694   -3.8241 H   0  0
   -2.9212    0.8129   -2.7750 H   0  0
   -3.7922    0.7371   -5.1731 H   0  0
   -2.1000    0.5346   -5.7281 H   0  0
   -3.2593   -1.6274   -5.7615 H   0  0
   -0.8559   -1.4518   -5.2993 H   0  0
    1.1441   -1.3909   -3.9021 H   0  0
    0.6240   -2.7467   -2.8541 H   0  0
    0.9498   -1.1672   -0.8280 H   0  0
    2.4215   -1.3913   -1.8168 H   0  0
    1.1994    4.6072   -1.8538 H   0  0
    0.7246    3.5287   -0.5110 H   0  0
   -0.8558    3.2390   -2.5876 H   0  0
    0.5661    2.8041   -3.5409 H   0  0
    4.4603    0.8698   -2.1689 H   0  0
    4.0515   -0.2933   -0.8841 H   0  0
    4.5672    1.3612    0.8491 H   0  0
    6.0077    1.0903   -0.1150 H   0  0
    4.4179    5.6170    0.4754 H   0  0
    2.9626    5.9099   -0.5019 H   0  0
    5.6602    3.3120   -2.4896 H   0  0
    7.0602    3.1182   -1.4278 H   0  0
    6.6808    5.4246   -0.4557 H   0  0
    6.9773    5.5826   -2.1912 H   0  0
   -3.8913   -1.1091   -3.0116 H   0  0
   -0.5961   -3.7647   -4.3286 H   0  0
   -1.9853   -3.6573   -5.4504 H   0  0
   -2.2656   -3.6718   -3.6855 H   0  0
   -1.1677   -1.3860   -0.9222 H   0  0
   -1.5755   -2.8345   -1.8156 H   0  0
   -2.6511   -1.4395   -1.8250 H   0  0
   -1.8964    1.7856   -1.0349 H   0  0
   -0.4602    1.9116   -0.0552 H   0  0
   -1.1052    0.3516   -0.3988 H   0  0
    2.0799    0.0705    0.7136 H   0  0
    1.1264    1.5285    0.6569 H   0  0
    2.7410    1.6437    1.1777 H   0  0
    6.0491    4.5482    1.1251 H   0  0
    6.8718    2.9705    1.0481 H   0  0
    5.2989    3.1349    1.8906 H   0  0
    3.0382    3.9658   -3.3952 H   0  0
    2.4273    2.4073   -3.7213 H   0  0
    4.0724    2.5734   -3.1856 H   0  0
    5.3501    6.4783   -3.6223 H   0  0
    4.4714    5.0136   -3.4157 H   0  0
    5.8639    7.8966   -1.9798 H   0  0
    5.4871    7.5908   -0.2510 H   0  0
    4.1677    7.9956   -1.3988 H   0  0
    2.5853    6.2316   -2.7820 H   0  0
  1  2  1  0
  2  3  1  0
  4  3  1  0
  4  5  1  0
  5  6  1  0
  6  1  1  0
  8  9  1  0
 10  9  1  0
  7 10  1  0
  5  8  1  0
  6  7  1  0
 11 12  1  0
 13 14  1  0
 14 11  1  0
  7 12  1  0
 16 17  1  0
 18 17  1  0
 15 18  1  0
 13 16  1  0
 14 15  1  0
 19 20  1  0
 21 22  1  0
 19 22  1  0
 15 20  1  0
 18 21  1  0
 10 13  1  0
 19 30  1  0
 19 31  1  0
  4 24  1  0
  5 25  1  0
  6 32  1  0
 10 33  1  0
  7 26  1  0
 13 27  1  0
 14 29  1  0
 18 28  1  0
 15 34  1  0
 30 35  1  0
  3 23  1  0
  1 36  1  0
  1 37  1  0
  2 38  1  0
  2 39  1  0
  3 40  1  0
  4 41  1  0
  8 42  1  0
  8 43  1  0
  9 44  1  0
  9 45  1  0
 11 46  1  0
 11 47  1  0
 12 48  1  0
 12 49  1  0
 16 50  1  0
 16 51  1  0
 17 52  1  0
 17 53  1  0
 20 54  1  0
 20 55  1  0
 21 56  1  0
 21 57  1  0
 22 58  1  0
 22 59  1  0
 23 60  1  0
 24 61  1  0
 24 62  1  0
 24 63  1  0
 25 64  1  0
 25 65  1  0
 25 66  1  0
 26 67  1  0
 26 68  1  0
 26 69  1  0
 27 70  1  0
 27 71  1  0
 27 72  1  0
 28 73  1  0
 28 74  1  0
 28 75  1  0
 29 76  1  0
 29 77  1  0
 29 78  1  0
 30 79  1  0
 30 80  1  0
 31 81  1  0
 31 82  1  0
 31 83  1  0
 35 84  1  0
M  END
> <Name>
RCGP2021_P12

> <Clean Energy>
75.7077

$$$$
RCGP2021_P13
  SciTegic12132405553D

 87 91  0  0  0  0            999 V2000
   -0.1985   -6.7444   -1.3286 C   0  0
   -0.7121   -7.3870   -2.6354 C   0  0
   -0.8225   -8.8501   -2.4221 C   0  0
    0.4305   -9.5750   -2.1042 C   0  0  1  0  0  0
    0.9381   -9.0300   -0.7080 C   0  0  2  0  0  0
    1.1643   -7.4195   -0.8967 C   0  0  2  0  0  0
    1.8409   -6.6722    0.3912 C   0  0  1  0  0  0
    2.3197   -9.6357   -0.3764 C   0  0
    3.0076   -9.0268    0.8956 C   0  0
    3.2812   -7.4923    0.6335 C   0  0  2  0  0  0
    3.1249   -4.4819    1.1939 C   0  0
    2.1925   -5.1813    0.0430 C   0  0
    4.2615   -6.8238    1.8057 C   0  0  2  0  0  0
    4.5294   -5.2598    1.3480 C   0  0  2  0  0  0
    5.4892   -4.5880    2.5965 C   0  0  1  0  0  0
    5.7203   -7.5848    1.9263 C   0  0
    6.6244   -6.9378    3.1009 C   0  0
    6.9324   -5.4375    2.8813 C   0  0  1  0  0  0
    7.2997   -2.5080    1.7387 C   0  0  1  0  0  0
    6.0420   -2.9899    2.6726 C   0  0
    8.0670   -5.1731    1.8009 C   0  0
    7.9052   -3.7699    1.1088 C   0  0
   -1.8934   -9.4473   -2.5753 O   0  0
    0.2059  -11.1150   -2.1935 C   0  0
   -0.1094   -9.4875    0.4072 C   0  0
    0.8047   -6.5451    1.6176 C   0  0
    3.5948   -6.9907    3.2789 C   0  0
    7.6480   -5.0463    4.2395 C   0  0
    5.1881   -5.2259   -0.1156 C   0  0
    6.9533   -1.6989    0.4164 C   0  0
    8.1963   -1.6193    2.6121 C   0  0
    1.8899   -7.3125   -1.7145 H   0  0
    3.8337   -7.4383   -0.3022 H   0  0
    4.8543   -4.7089    3.4702 H   0  0
    6.3655   -0.3721    0.6252 O   0  0
    4.9987   -0.3254    0.9339 C   0  0
    4.3094   -1.3490    0.9376 O   0  0
    4.3572    0.9997    1.2052 C   0  0
   -0.0570   -5.6726   -1.5069 H   0  0
   -0.9426   -6.8850   -0.5355 H   0  0
   -1.6731   -6.9498   -2.9381 H   0  0
    0.0640   -7.2016   -3.3909 H   0  0
    1.1992   -9.2672   -2.8265 H   0  0
    2.9957   -9.4242   -1.2160 H   0  0
    2.2124  -10.7210   -0.2611 H   0  0
    2.4010   -9.1721    1.7985 H   0  0
    3.9659   -9.5418    1.0162 H   0  0
    3.3320   -3.4467    0.8999 H   0  0
    2.5976   -4.4829    2.1537 H   0  0
    1.2636   -4.6181   -0.1103 H   0  0
    2.7489   -5.1728   -0.8866 H   0  0
    6.2536   -7.5317    0.9711 H   0  0
    5.5477   -8.6370    2.1817 H   0  0
    6.0549   -7.0243    4.0175 H   0  0
    7.5692   -7.4802    3.2348 H   0  0
    6.4817   -3.0289    3.6192 H   0  0
    5.2868   -2.2106    2.7616 H   0  0
    7.8948   -5.7991    0.9190 H   0  0
    9.0429   -5.4345    2.2300 H   0  0
    8.7734   -3.5380    0.4790 H   0  0
    7.1509   -3.9775    0.4833 H   0  0
    1.1429  -11.6440   -1.9749 H   0  0
   -0.1233  -11.3688   -3.2102 H   0  0
   -0.5655  -11.4296   -1.4800 H   0  0
    0.2056   -9.1693    1.3828 H   0  0
   -0.1766  -10.5796    0.4236 H   0  0
   -1.1009   -9.0702    0.1957 H   0  0
   -0.0808   -5.9923    1.2874 H   0  0
    1.2325   -6.0004    2.4306 H   0  0
    0.5068   -7.4970    1.9820 H   0  0
    3.4626   -8.0568    3.4975 H   0  0
    2.6694   -6.5102    3.3458 H   0  0
    4.2178   -6.5573    4.0524 H   0  0
    7.9631   -4.0084    4.2507 H   0  0
    8.5365   -5.6795    4.3621 H   0  0
    6.9556   -5.2254    5.0730 H   0  0
    5.3525   -4.1808   -0.3990 H   0  0
    4.5720   -5.6904   -0.8737 H   0  0
    6.1399   -5.7472   -0.1092 H   0  0
    7.9172   -1.5324   -0.0828 H   0  0
    6.3045   -2.2867   -0.2462 H   0  0
    9.0709   -1.3014    2.0284 H   0  0
    8.5280   -2.1840    3.4918 H   0  0
    7.6277   -0.7363    2.9349 H   0  0
    3.2862    0.8812    1.4220 H   0  0
    4.5113    1.6526    0.3339 H   0  0
    4.8788    1.4788    2.0473 H   0  0
  1  2  1  0
  2  3  1  0
  4  3  1  0
  4  5  1  0
  5  6  1  0
  6  1  1  0
  8  9  1  0
 10  9  1  0
  7 10  1  0
  5  8  1  0
  6  7  1  0
 11 12  1  0
 13 14  1  0
 14 11  1  0
  7 12  1  0
 16 17  1  0
 18 17  1  0
 15 18  1  0
 13 16  1  0
 14 15  1  0
 19 20  1  0
 21 22  1  0
 19 22  1  0
 15 20  1  0
 18 21  1  0
 10 13  1  0
 19 30  1  0
 19 31  1  0
  4 24  1  0
  5 25  1  0
  6 32  1  0
 10 33  1  0
  7 26  1  0
 13 27  1  0
 14 29  1  0
 18 28  1  0
 15 34  1  0
 30 35  1  0
  3 23  2  0
 35 36  1  0
 36 38  1  0
 36 37  2  0
  1 39  1  0
  1 40  1  0
  2 41  1  0
  2 42  1  0
  4 43  1  0
  8 44  1  0
  8 45  1  0
  9 46  1  0
  9 47  1  0
 11 48  1  0
 11 49  1  0
 12 50  1  0
 12 51  1  0
 16 52  1  0
 16 53  1  0
 17 54  1  0
 17 55  1  0
 20 56  1  0
 20 57  1  0
 21 58  1  0
 21 59  1  0
 22 60  1  0
 22 61  1  0
 24 62  1  0
 24 63  1  0
 24 64  1  0
 25 65  1  0
 25 66  1  0
 25 67  1  0
 26 68  1  0
 26 69  1  0
 26 70  1  0
 27 71  1  0
 27 72  1  0
 27 73  1  0
 28 74  1  0
 28 75  1  0
 28 76  1  0
 29 77  1  0
 29 78  1  0
 29 79  1  0
 30 80  1  0
 30 81  1  0
 31 82  1  0
 31 83  1  0
 31 84  1  0
 38 85  1  0
 38 86  1  0
 38 87  1  0
M  END
> <Name>
RCGP2021_P13

> <Clean Energy>
201.146

$$$$
RCGP2021_P14
  SciTegic12132405553D

 36 38  0  0  0  0            999 V2000
   -1.9275    1.8834    7.4106 C   0  0
   -2.4334    2.6393    8.3828 C   0  0
   -3.6586    3.4029    8.1538 C   0  0
   -4.2686    3.3427    6.9727 C   0  0
   -3.7151    2.5141    5.9056 C   0  0
   -2.5953    1.8139    6.1124 C   0  0
   -2.0516    1.0282    5.1181 O   0  0
   -4.4064    2.4526    4.5820 C   0  0
   -3.3726    2.1923    3.4993 C   0  0  2  0  0  0
   -2.6609    0.8864    3.8554 C   0  0  1  0  0  0
    0.6228    0.6642    1.9591 C   0  0
   -0.3734    0.9562    2.9866 C   0  0
   -1.6400    0.5887    2.8082 C   0  0
   -2.0363   -0.1075    1.5883 C   0  0
   -1.1304   -0.3760    0.6508 C   0  0
    0.2653    0.0293    0.8451 C   0  0
   -1.7962    2.7021    9.6158 O   0  0
   -5.4326    4.0683    6.7547 O   0  0
   -2.4329    3.2696    3.4567 O   0  0
    1.9429    1.0500    2.1458 O   0  0
    1.2185   -0.2465   -0.1302 O   0  0
   -1.5118   -1.0399   -0.5090 O   0  0
   -1.0387    1.3303    7.5780 H   0  0
   -4.0609    4.0048    8.9286 H   0  0
   -4.9749    3.3757    4.4047 H   0  0
   -5.1074    1.6071    4.5955 H   0  0
   -3.8652    2.1007    2.5217 H   0  0
   -3.4273    0.0996    3.8666 H   0  0
   -0.0875    1.4627    3.8734 H   0  0
   -3.0462   -0.3992    1.4501 H   0  0
   -0.9894    2.1297    9.5990 H   0  0
   -5.6658    4.5703    7.5741 H   0  0
   -2.9076    4.1100    3.2462 H   0  0
    2.0304    1.5058    3.0195 H   0  0
    0.7936   -0.7182   -0.8871 H   0  0
   -2.4807   -1.2360   -0.4724 H   0  0
  1  2  2  0
  2  3  1  0
  3  4  2  0
  4  5  1  0
  5  6  2  0
  1  6  1  0
  8  9  1  0
  9 10  1  0
  7 10  1  0
  5  8  1  0
  7  6  1  0
 11 12  1  0
 12 13  2  0
 13 14  1  0
 14 15  2  0
 15 16  1  0
 11 16  2  0
  2 17  1  0
  4 18  1  0
  9 19  1  0
 10 13  1  0
 11 20  1  0
 16 21  1  0
 15 22  1  0
  1 23  1  0
  3 24  1  0
  8 25  1  0
  8 26  1  0
  9 27  1  0
 10 28  1  0
 12 29  1  0
 14 30  1  0
 17 31  1  0
 18 32  1  0
 19 33  1  0
 20 34  1  0
 21 35  1  0
 22 36  1  0
M  END
> <Name>
RCGP2021_P14

> <Clean Energy>
19.7344

$$$$
RCGP2021_P15 (mistura com P16)
  SciTegic12132405553D

 20 20  0  0  0  0            999 V2000
    2.2821    1.8866    2.4749 C   0  0
    2.9411    0.6452    2.1018 C   0  0
    2.2940   -0.2653    1.3808 C   0  0
    0.9133   -0.0361    0.9516 C   0  0
    0.3070    1.1153    1.2996 C   0  0
    1.0248    2.1178    2.0955 C   0  0
    0.3114    3.3727    2.4540 C   0  0
   -0.8536    3.5194    2.0680 O   0  0
    0.9042    4.4029    3.2145 O   0  0
    0.2966   -1.0793    0.1749 O   0  0
   -1.0614   -0.8544   -0.2476 C   0  0
    2.9343   -1.4474    1.0305 O   0  0
    2.8059    2.6029    3.0479 H   0  0
    3.9410    0.4657    2.4057 H   0  0
   -0.6875    1.3277    1.0146 H   0  0
    1.8241    4.1878    3.4687 H   0  0
   -1.4100   -1.7206   -0.8278 H   0  0
   -1.1083    0.0478   -0.8756 H   0  0
   -1.7058   -0.7233    0.6345 H   0  0
    3.8536   -1.4448    1.3956 H   0  0
  1  2  1  0
  2  3  2  0
  3  4  1  0
  4  5  2  0
  5  6  1  0
  1  6  2  0
  6  7  1  0
  7  9  1  0
  7  8  2  0
  4 10  1  0
 10 11  1  0
  3 12  1  0
  1 13  1  0
  2 14  1  0
  5 15  1  0
  9 16  1  0
 11 17  1  0
 11 18  1  0
 11 19  1  0
 12 20  1  0
M  END
> <Name>
RCGP2021_P15 (mistura com P16)

> <Clean Energy>
1.34354

$$$$
RCGP2021_P16 (mistura com P15)
  SciTegic12132405553D

 24 24  0  0  0  0            999 V2000
    0.2493    1.4096    1.1840 C   0  0
    0.5310   -0.0464    1.3824 C   0  0
    1.4811   -0.4197    2.2483 C   0  0
    2.2580    0.6420    3.0155 C   0  0
    1.9715    1.9238    2.8052 C   0  0
    0.9324    2.3287    1.8580 C   0  0
    0.6102    3.7601    1.6210 C   0  0
   -0.2776    4.0430    0.8090 O   0  0
    1.2762    4.8086    2.2847 O   0  0
    3.3050    0.3928    3.9768 O   0  0
    3.6565   -0.9673    4.2441 C   0  0
    1.7249   -1.7958    2.4149 O   0  0
   -0.1771   -1.0786    0.6803 O   0  0
   -1.1872   -0.6332   -0.2382 C   0  0
   -0.4945    1.7361    0.5077 H   0  0
    2.5095    2.6629    3.3367 H   0  0
    1.9566    4.4722    2.9019 H   0  0
    4.4624   -0.9956    4.9911 H   0  0
    4.0012   -1.4471    3.3165 H   0  0
    2.7790   -1.5042    4.6330 H   0  0
    1.1325   -2.3301    1.8418 H   0  0
   -1.6573   -1.5063   -0.7125 H   0  0
   -0.7293   -0.0004   -1.0129 H   0  0
   -1.9520   -0.0575    0.3041 H   0  0
  1  2  1  0
  2  3  2  0
  3  4  1  0
  4  5  2  0
  5  6  1  0
  1  6  2  0
  6  7  1  0
  7  9  1  0
  7  8  2  0
  4 10  1  0
 10 11  1  0
  3 12  1  0
  2 13  1  0
 13 14  1  0
  1 15  1  0
  5 16  1  0
  9 17  1  0
 11 18  1  0
 11 19  1  0
 11 20  1  0
 12 21  1  0
 14 22  1  0
 14 23  1  0
 14 24  1  0
M  END
> <Name>
RCGP2021_P16 (mistura com P15)

> <Clean Energy>
4.67004

$$$$
RCGP2021_P17
  SciTegic12132405553D

 48 51  0  0  0  0            999 V2000
   -4.0977   -8.0781   -1.0392 C   0  0
   -4.8182   -9.1966   -1.0414 C   0  0
   -6.2471   -9.1457   -0.7260 C   0  0
   -6.8235   -7.9809   -0.4377 C   0  0
   -6.0347   -6.7481   -0.4346 C   0  0
   -4.7298   -6.7994   -0.7230 C   0  0
   -3.9301   -5.5879   -0.7253 C   0  0
   -6.6612   -5.5577   -0.1329 O   0  0
   -5.9927   -4.3677   -0.1126 C   0  0
   -4.5784   -4.3329   -0.4109 C   0  0
   -3.9028   -3.1823   -0.3976 C   0  0
   -6.6458   -3.2483    0.1789 C   0  0
   -5.9446   -1.9705    0.2030 C   0  0
   -4.6361   -1.9133   -0.0656 C   0  0
   -3.8389    1.5622    1.0252 C   0  0  1  0  0  0
   -4.4943    0.2803    0.9827 O   0  0
   -3.9286   -0.5728   -0.0351 C   0  0  2  0  0  0
   -4.1239    0.0890   -1.4139 C   0  0  1  0  0  0
   -3.4132    1.4359   -1.4118 C   0  0  2  0  0  0
   -4.0238    2.2903   -0.3117 C   0  0  2  0  0  0
   -4.2107  -10.4097   -1.3435 O   0  0
   -7.0069  -10.3115   -0.7263 O   0  0
   -2.7249   -5.6407   -0.9924 O   0  0
   -2.5205   -3.2097   -0.7031 O   0  0
   -6.6601   -0.8171    0.5061 O   0  0
   -3.5682   -0.7444   -2.4280 O   0  0
   -3.5788    2.0776   -2.6744 O   0  0
   -3.3718    3.5572   -0.2686 O   0  0
   -4.4578    2.4084    2.1420 C   0  0
   -4.2903    1.7381    3.3913 O   0  0
   -2.8540   -0.7141    0.1254 H   0  0
   -3.0630   -8.1142   -1.2675 H   0  0
   -7.8583   -7.9458   -0.2097 H   0  0
   -7.6829   -3.2845    0.3948 H   0  0
   -2.7674    1.4180    1.2215 H   0  0
   -5.1959    0.2374   -1.6050 H   0  0
   -2.3432    1.2864   -1.2122 H   0  0
   -5.0958    2.4334   -0.5068 H   0  0
   -3.2509  -10.2599   -1.5296 H   0  0
   -6.4342  -11.0823   -0.9584 H   0  0
   -2.1114   -2.3258   -0.6745 H   0  0
   -7.6052   -1.0518    0.6734 H   0  0
   -2.6042   -0.8750   -2.2503 H   0  0
   -3.1870    1.5117   -3.3842 H   0  0
   -2.4074    3.4221   -0.0937 H   0  0
   -5.5289    2.5491    1.9403 H   0  0
   -3.9589    3.3871    2.1790 H   0  0
   -4.7386    0.8567    3.3547 H   0  0
  1  2  2  0
  2  3  1  0
  3  4  2  0
  4  5  1  0
  5  6  2  0
  1  6  1  0
  8  9  1  0
  7 10  1  0
  5  8  1  0
  7  6  1  0
 12 13  1  0
 13 14  2  0
 11 14  1  0
  9 12  2  0
 11 10  2  0
 10  9  1  0
 15 16  1  0
 16 17  1  0
 17 18  1  0
 18 19  1  0
 19 20  1  0
 15 20  1  0
 14 17  1  0
  2 21  1  0
  3 22  1  0
  7 23  2  0
 11 24  1  0
 13 25  1  0
 29 30  1  0
 15 29  1  0
 20 28  1  0
 19 27  1  0
 18 26  1  0
 17 31  1  0
  1 32  1  0
  4 33  1  0
 12 34  1  0
 15 35  1  0
 18 36  1  0
 19 37  1  0
 20 38  1  0
 21 39  1  0
 22 40  1  0
 24 41  1  0
 25 42  1  0
 26 43  1  0
 27 44  1  0
 28 45  1  0
 29 46  1  0
 29 47  1  0
 30 48  1  0
M  END
> <Name>
RCGP2021_P17

> <Clean Energy>
-0.530347

$$$$
RCGP2021_S1
  SciTegic12132405553D

 81 85  0  0  0  0            999 V2000
   -9.4389   -0.7468   -2.0300 C   0  0
  -10.5932   -1.5625   -2.6489 C   0  0
  -10.5539   -2.9294   -2.0770 C   0  0
   -9.3336   -3.7288   -2.3409 C   0  0  1  0  0  0
   -8.1320   -2.9894   -1.6239 C   0  0  2  0  0  0
   -8.0643   -1.4901   -2.2736 C   0  0  2  0  0  0
   -6.7883   -0.5954   -1.7855 C   0  0  1  0  0  0
   -6.7971   -3.6853   -1.9763 C   0  0
   -5.5153   -2.9277   -1.4752 C   0  0
   -5.4554   -1.5219   -2.1930 C   0  0  2  0  0  0
   -5.3014    1.5323   -2.3621 C   0  0
   -6.7074    0.7377   -2.6096 C   0  0
   -3.9900   -0.7499   -1.9569 C   0  0  2  0  0  0
   -4.0374    0.6422   -2.8258 C   0  0  2  0  0  0
   -2.5446    1.4856   -2.4763 C   0  0  1  0  0  0
   -2.7323   -1.6177   -2.5145 C   0  0
   -1.3711   -0.8493   -2.2333 C   0  0
   -1.2211    0.5821   -2.8667 C   0  0  1  0  0  0
   -1.8763    3.0956   -4.6442 C   0  0  1  0  0  0
   -2.2244    2.9848   -3.0885 C   0  0
   -0.9681    0.6183   -4.4753 C   0  0
   -0.6802    2.1420   -4.9380 C   0  0
  -11.5215   -3.4066   -1.4748 O   0  0
   -9.5592   -5.2152   -1.9333 C   0  0
   -8.3663   -3.0849   -0.0479 C   0  0
   -6.9563   -0.0982   -0.2620 C   0  0
   -3.7116   -0.5433   -0.3651 C   0  0
    0.0984    1.1045   -2.1834 C   0  0
   -4.3249    0.2569   -4.3818 C   0  0
   -2.9940    2.8552   -5.5742 C   0  0
   -1.4697    4.5405   -4.9346 C   0  0
   -7.9253   -1.6374   -3.3531 H   0  0
   -5.5332   -1.7254   -3.2556 H   0  0
   -2.5898    1.5989   -1.3956 H   0  0
   -2.8112    2.1491   -6.5723 O   0  0
   -4.2582    3.4430   -5.3745 O   0  0
   -9.4297    0.2429   -2.5002 H   0  0
   -9.6073   -0.6347   -0.9524 H   0  0
  -11.5609   -1.0760   -2.4668 H   0  0
  -10.3772   -1.6268   -3.7244 H   0  0
   -9.1065   -3.6660   -3.4143 H   0  0
   -6.7136   -3.7279   -3.0707 H   0  0
   -6.8118   -4.7051   -1.5732 H   0  0
   -5.5047   -2.8161   -0.3835 H   0  0
   -4.6501   -3.5220   -1.7876 H   0  0
   -5.3098    2.4556   -2.9581 H   0  0
   -5.1988    1.7912   -1.3030 H   0  0
   -7.5671    1.3700   -2.3562 H   0  0
   -6.7687    0.4906   -3.6631 H   0  0
   -2.8388   -1.8108   -3.5838 H   0  0
   -2.6961   -2.5767   -1.9836 H   0  0
   -1.3117   -0.7197   -1.1636 H   0  0
   -0.5104   -1.4559   -2.5432 H   0  0
   -1.3181    3.3239   -2.5839 H   0  0
   -3.0432    3.6711   -2.8363 H   0  0
   -1.7955    0.2234   -5.0182 H   0  0
   -0.0807    0.0127   -4.6995 H   0  0
    0.1773    2.4961   -4.3728 H   0  0
   -0.4354    2.1959   -6.0069 H   0  0
   -8.6581   -5.8041   -2.1493 H   0  0
  -10.4016   -5.6189   -2.5112 H   0  0
   -9.7937   -5.2856   -0.8642 H   0  0
   -7.5589   -2.6231    0.4883 H   0  0
   -8.4044   -4.1355    0.2557 H   0  0
   -9.3080   -2.5968    0.2295 H   0  0
   -7.8788    0.4840   -0.1706 H   0  0
   -6.1505    0.5398    0.0283 H   0  0
   -6.9890   -0.9142    0.4174 H   0  0
   -3.6830   -1.5225    0.1270 H   0  0
   -4.4457    0.0446    0.0868 H   0  0
   -2.7686   -0.0412   -0.1823 H   0  0
    0.3439    2.1238   -2.4787 H   0  0
    0.9286    0.4412   -2.4603 H   0  0
   -0.0386    1.0803   -1.0939 H   0  0
   -4.4233    1.1221   -4.9498 H   0  0
   -5.2423   -0.2967   -4.5098 H   0  0
   -3.5322   -0.3521   -4.7844 H   0  0
   -1.1901    4.6342   -5.9928 H   0  0
   -0.6134    4.8107   -4.3012 H   0  0
   -2.3156    5.2070   -4.7157 H   0  0
   -4.2731    3.9933   -4.5574 H   0  0
  1  2  1  0
  2  3  1  0
  3  4  1  0
  4  5  1  0
  5  6  1  0
  1  6  1  0
  8  9  1  0
  9 10  1  0
  7 10  1  0
  5  8  1  0
  7  6  1  0
 11 12  1  0
 13 14  1  0
 11 14  1  0
 12  7  1  0
 16 17  1  0
 17 18  1  0
 15 18  1  0
 13 16  1  0
 15 14  1  0
 19 20  1  0
 21 22  1  0
 19 22  1  0
 20 15  1  0
 18 21  1  0
  3 23  2  0
 10 13  1  0
 19 30  1  0
 19 31  1  0
  4 24  1  0
  5 25  1  0
  6 32  1  0
 10 33  1  0
  7 26  1  0
 13 27  1  0
 14 29  1  0
 18 28  1  0
 15 34  1  0
 30 36  1  0
 30 35  2  0
  1 37  1  0
  1 38  1  0
  2 39  1  0
  2 40  1  0
  4 41  1  0
  8 42  1  0
  8 43  1  0
  9 44  1  0
  9 45  1  0
 11 46  1  0
 11 47  1  0
 12 48  1  0
 12 49  1  0
 16 50  1  0
 16 51  1  0
 17 52  1  0
 17 53  1  0
 20 54  1  0
 20 55  1  0
 21 56  1  0
 21 57  1  0
 22 58  1  0
 22 59  1  0
 24 60  1  0
 24 61  1  0
 24 62  1  0
 25 63  1  0
 25 64  1  0
 25 65  1  0
 26 66  1  0
 26 67  1  0
 26 68  1  0
 27 69  1  0
 27 70  1  0
 27 71  1  0
 28 72  1  0
 28 73  1  0
 28 74  1  0
 29 75  1  0
 29 76  1  0
 29 77  1  0
 31 78  1  0
 31 79  1  0
 31 80  1  0
 36 81  1  0
M  END
> <Name>
RCGP2021_S1

> <Clean Energy>
98.0451

$$$$
RCGP2021_S2
  SciTegic12132405553D

 86 90  0  0  0  0            999 V2000
   -9.3943   -0.9924   -2.5672 C   0  0
  -10.3518   -1.4190   -3.6948 C   0  0
  -10.3924   -2.9007   -3.7832 C   0  0
   -9.0987   -3.5990   -4.0209 C   0  0  1  0  0  0
   -8.1331   -3.2624   -2.8188 C   0  0  2  0  0  0
   -7.9811   -1.6494   -2.8177 C   0  0  2  0  0  0
   -6.8409   -1.0677   -1.8405 C   0  0  1  0  0  0
   -6.7337   -3.8457   -3.1236 C   0  0
   -5.5754   -3.3699   -2.1815 C   0  0
   -5.4514   -1.7960   -2.3773 C   0  0  2  0  0  0
   -5.3912    1.1285   -1.4940 C   0  0
   -6.7107    0.4720   -2.1264 C   0  0
   -4.0611   -1.1539   -1.7537 C   0  0  2  0  0  0
   -4.0722    0.4629   -2.1165 C   0  0  2  0  0  0
   -2.7156    1.1348   -1.3575 C   0  0  1  0  0  0
   -2.7422   -1.7863   -2.4673 C   0  0
   -1.4518   -1.1433   -1.8148 C   0  0
   -1.3177    0.4404   -1.8724 C   0  0  1  0  0  0
   -1.8671    3.4367   -2.6783 C   0  0  1  0  0  0
   -2.4182    2.7517   -1.3587 C   0  0
   -0.8550    1.0799   -3.3232 C   0  0
   -0.5946    2.6667   -3.1301 C   0  0
  -11.4668   -3.5008   -3.8832 O   0  0
   -9.3435   -5.1028   -4.3173 C   0  0
   -8.7182   -3.9251   -1.4854 C   0  0
   -7.1991   -1.2148   -0.2706 C   0  0
   -3.9338   -1.4696   -0.1526 C   0  0
   -0.1650    0.6880   -0.8477 C   0  0
   -4.1540    0.6434   -3.7333 C   0  0
   -2.8502    3.6478   -3.7803 C   0  0
   -1.4554    4.8569   -2.2904 C   0  0
   -7.6330   -1.3714   -3.8184 H   0  0
   -5.3899   -1.6166   -3.4420 H   0  0
   -2.8906    0.8682   -0.3297 H   0  0
   -2.4674    3.8260   -4.9440 O   0  0
   -4.1713    3.8522   -3.4226 O   0  0
   -5.0406    4.2844   -4.4798 C   0  0
   -6.3612    4.2569   -3.8739 C   0  0
   -7.4555    4.2332   -3.3704 C   0  0
   -9.3303    0.0996   -2.5913 H   0  0
   -9.7792   -1.3084   -1.5883 H   0  0
  -11.3546   -0.9956   -3.5515 H   0  0
   -9.9027   -1.0347   -4.6234 H   0  0
   -8.6163   -3.1340   -4.8938 H   0  0
   -6.4380   -3.4952   -4.1152 H   0  0
   -6.8006   -4.9428   -3.1289 H   0  0
   -5.7375   -3.6361   -1.1218 H   0  0
   -4.6620   -3.8534   -2.5392 H   0  0
   -5.3814    2.2009   -1.7330 H   0  0
   -5.3922    1.0004   -0.4068 H   0  0
   -7.6108    0.9814   -1.7658 H   0  0
   -6.6508    0.6068   -3.1965 H   0  0
   -2.7631   -1.6065   -3.5454 H   0  0
   -2.7168   -2.8715   -2.2925 H   0  0
   -1.5032   -1.4042   -0.7793 H   0  0
   -0.5324   -1.5900   -2.2217 H   0  0
   -1.6099    2.8795   -0.6539 H   0  0
   -3.2965    3.3015   -0.9884 H   0  0
   -1.5782    0.9142   -4.0969 H   0  0
    0.0923    0.6094   -3.6212 H   0  0
    0.1476    2.7689   -2.3439 H   0  0
   -0.1956    3.1326   -4.0406 H   0  0
   -8.3877   -5.6060   -4.5214 H   0  0
   -9.9889   -5.1864   -5.2042 H   0  0
   -9.8355   -5.5824   -3.4661 H   0  0
   -8.0789   -3.7423   -0.6441 H   0  0
   -8.7940   -5.0105   -1.6211 H   0  0
   -9.7192   -3.5239   -1.2698 H   0  0
   -8.1474   -0.7145   -0.0612 H   0  0
   -6.4564   -0.7590    0.3442 H   0  0
   -7.2751   -2.2510    0.0139 H   0  0
   -3.9247   -2.5501    0.0112 H   0  0
   -4.7195   -1.0417    0.3904 H   0  0
   -3.0197   -1.0528    0.2665 H   0  0
    0.0389    1.7467   -0.7027 H   0  0
    0.7419    0.1892   -1.1910 H   0  0
   -0.4803    0.2586    0.1167 H   0  0
   -4.1969    1.6584   -3.9788 H   0  0
   -5.0362    0.1707   -4.1533 H   0  0
   -3.2953    0.1997   -4.2171 H   0  0
   -1.0090    5.3680   -3.1506 H   0  0
   -0.7162    4.7948   -1.4736 H   0  0
   -2.3369    5.4128   -1.9439 H   0  0
   -4.7768    5.3075   -4.8107 H   0  0
   -5.0040    3.5902   -5.3325 H   0  0
   -8.3824    4.2131   -2.9439 H   0  0
  1  2  1  0
  2  3  1  0
  3  4  1  0
  4  5  1  0
  5  6  1  0
  1  6  1  0
  8  9  1  0
  9 10  1  0
  7 10  1  0
  5  8  1  0
  7  6  1  0
 11 12  1  0
 13 14  1  0
 11 14  1  0
 12  7  1  0
 16 17  1  0
 17 18  1  0
 15 18  1  0
 13 16  1  0
 15 14  1  0
 19 20  1  0
 21 22  1  0
 19 22  1  0
 20 15  1  0
 18 21  1  0
  3 23  2  0
 10 13  1  0
 19 30  1  0
 19 31  1  0
  4 24  1  0
  5 25  1  0
  6 32  1  0
 10 33  1  0
  7 26  1  0
 13 27  1  0
 14 29  1  0
 18 28  1  0
 15 34  1  0
 30 36  1  0
 30 35  2  0
 36 37  1  0
 37 38  1  0
 38 39  3  0
  1 40  1  0
  1 41  1  0
  2 42  1  0
  2 43  1  0
  4 44  1  0
  8 45  1  0
  8 46  1  0
  9 47  1  0
  9 48  1  0
 11 49  1  0
 11 50  1  0
 12 51  1  0
 12 52  1  0
 16 53  1  0
 16 54  1  0
 17 55  1  0
 17 56  1  0
 20 57  1  0
 20 58  1  0
 21 59  1  0
 21 60  1  0
 22 61  1  0
 22 62  1  0
 24 63  1  0
 24 64  1  0
 24 65  1  0
 25 66  1  0
 25 67  1  0
 25 68  1  0
 26 69  1  0
 26 70  1  0
 26 71  1  0
 27 72  1  0
 27 73  1  0
 27 74  1  0
 28 75  1  0
 28 76  1  0
 28 77  1  0
 29 78  1  0
 29 79  1  0
 29 80  1  0
 31 81  1  0
 31 82  1  0
 31 83  1  0
 37 84  1  0
 37 85  1  0
 39 86  1  0
M  END
> <Name>
RCGP2021_S2

> <Clean Energy>
104.215

$$$$
RCGP2021_S3
  SciTegic12132405553D

 87 91  0  0  0  0            999 V2000
  -10.4410    0.6192   -4.4009 C   0  0
  -11.0899    0.7447   -5.7974 C   0  0
  -11.3890   -0.6104   -6.3373 C   0  0
  -10.2443   -1.5720   -6.4519 C   0  0  1  0  0  0
   -9.6382   -1.7932   -5.0076 C   0  0  2  0  0  0
   -9.1750   -0.3224   -4.4997 C   0  0  2  0  0  0
   -8.2694   -0.3107   -3.1621 C   0  0  1  0  0  0
   -8.3582   -2.6556   -5.1312 C   0  0
   -7.4476   -2.7233   -3.8554 C   0  0
   -6.9618   -1.2322   -3.5682 C   0  0  2  0  0  0
   -6.5531    1.3036   -1.9166 C   0  0
   -7.7597    1.1679   -2.9584 C   0  0
   -5.6973   -1.1316   -2.5131 C   0  0  2  0  0  0
   -5.2790    0.4744   -2.4081 C   0  0  2  0  0  0
   -4.1092    0.5814   -1.2278 C   0  0  1  0  0  0
   -4.4035   -1.9139   -3.0958 C   0  0
   -3.2133   -1.7912   -2.0500 C   0  0
   -2.7795   -0.3195   -1.5893 C   0  0  1  0  0  0
   -2.4847    2.8201   -1.5778 C   0  0  1  0  0  0
   -3.5343    2.0146   -0.6953 C   0  0
   -1.7914    0.4847   -2.6286 C   0  0
   -1.3063    1.8557   -1.9211 C   0  0
  -12.4830   -0.8567   -6.8549 O   0  0
  -10.6786   -2.8446   -7.2319 C   0  0
  -10.7082   -2.5532   -4.1032 C   0  0
   -9.0727   -0.7346   -1.8239 C   0  0
   -6.0633   -1.7975   -1.0689 C   0  0
   -1.9814   -0.6172   -0.2750 C   0  0
   -4.8560    1.0215   -3.8701 C   0  0
   -3.0161    3.5748   -2.7856 C   0  0
   -1.9262    3.9267   -0.6637 C   0  0
   -8.5016    0.0731   -5.2651 H   0  0
   -6.5716   -0.8409   -4.4946 H   0  0
   -4.6196    0.1544   -0.3954 H   0  0
   -2.2788    3.7977   -3.7546 O   0  0
   -4.2374    4.1143   -2.7320 N   0  0
   -4.7685    4.9413   -3.7643 C   0  0
   -6.1860    5.0500   -3.4587 C   0  0
   -7.3604    5.1395   -3.2045 C   0  0
  -10.1569    1.6285   -4.0859 H   0  0
  -11.1524    0.2036   -3.6758 H   0  0
  -11.9906    1.3752   -5.7653 H   0  0
  -10.3254    1.2078   -6.4423 H   0  0
   -9.4344   -1.0736   -7.0062 H   0  0
   -7.7216   -2.1948   -5.8865 H   0  0
   -8.6420   -3.6685   -5.4602 H   0  0
   -7.9507   -3.1627   -2.9755 H   0  0
   -6.5865   -3.3401   -4.1222 H   0  0
   -6.2640    2.3629   -1.8439 H   0  0
   -6.8642    0.9446   -0.9350 H   0  0
   -8.6071    1.8001   -2.6583 H   0  0
   -7.3872    1.5197   -3.9065 H   0  0
   -4.1305   -1.5015   -4.0609 H   0  0
   -4.6476   -2.9804   -3.2226 H   0  0
   -3.5817   -2.2804   -1.1809 H   0  0
   -2.3099   -2.3398   -2.3901 H   0  0
   -2.9778    1.7607    0.1806 H   0  0
   -4.3685    2.6758   -0.4024 H   0  0
   -2.2618    0.6905   -3.5679 H   0  0
   -0.9042   -0.1426   -2.8046 H   0  0
   -0.8353    1.5683   -0.9867 H   0  0
   -0.5615    2.3922   -2.5265 H   0  0
   -9.8276   -3.5346   -7.3285 H   0  0
  -11.0116   -2.5459   -8.2382 H   0  0
  -11.4999   -3.3469   -6.7136 H   0  0
  -10.3244   -2.7449   -3.1215 H   0  0
  -10.9518   -3.5181   -4.5651 H   0  0
  -11.6270   -1.9567   -4.0210 H   0  0
   -9.9294   -0.0726   -1.6833 H   0  0
   -8.4609   -0.6558   -0.9559 H   0  0
   -9.4211   -1.7543   -1.8923 H   0  0
   -6.3323   -2.8445   -1.1986 H   0  0
   -6.8535   -1.2834   -0.6001 H   0  0
   -5.2184   -1.7434   -0.3809 H   0  0
   -1.6566    0.2950    0.2260 H   0  0
   -1.1155   -1.2363   -0.4916 H   0  0
   -2.6654   -1.1589    0.4026 H   0  0
   -4.6091    2.0437   -3.8140 H   0  0
   -5.6595    0.9085   -4.5905 H   0  0
   -4.0000    0.4717   -4.2517 H   0  0
   -1.1317    4.4813   -1.1771 H   0  0
   -1.5091    3.4446    0.2416 H   0  0
   -2.7290    4.6139   -0.3706 H   0  0
   -4.7994    3.9630   -1.9452 H   0  0
   -4.2945    5.9394   -3.7187 H   0  0
   -4.5934    4.5034   -4.7544 H   0  0
   -8.3552    5.2152   -2.9891 H   0  0
  1  2  1  0
  2  3  1  0
  3  4  1  0
  4  5  1  0
  5  6  1  0
  1  6  1  0
  8  9  1  0
  9 10  1  0
  7 10  1  0
  5  8  1  0
  7  6  1  0
 11 12  1  0
 13 14  1  0
 11 14  1  0
 12  7  1  0
 16 17  1  0
 17 18  1  0
 15 18  1  0
 13 16  1  0
 15 14  1  0
 19 20  1  0
 21 22  1  0
 19 22  1  0
 20 15  1  0
 18 21  1  0
  3 23  2  0
 10 13  1  0
 19 30  1  0
 19 31  1  0
  4 24  1  0
  5 25  1  0
  6 32  1  0
 10 33  1  0
  7 26  1  0
 13 27  1  0
 14 29  1  0
 18 28  1  0
 15 34  1  0
 30 36  1  0
 30 35  2  0
 36 37  1  0
 37 38  1  0
 38 39  3  0
  1 40  1  0
  1 41  1  0
  2 42  1  0
  2 43  1  0
  4 44  1  0
  8 45  1  0
  8 46  1  0
  9 47  1  0
  9 48  1  0
 11 49  1  0
 11 50  1  0
 12 51  1  0
 12 52  1  0
 16 53  1  0
 16 54  1  0
 17 55  1  0
 17 56  1  0
 20 57  1  0
 20 58  1  0
 21 59  1  0
 21 60  1  0
 22 61  1  0
 22 62  1  0
 24 63  1  0
 24 64  1  0
 24 65  1  0
 25 66  1  0
 25 67  1  0
 25 68  1  0
 26 69  1  0
 26 70  1  0
 26 71  1  0
 27 72  1  0
 27 73  1  0
 27 74  1  0
 28 75  1  0
 28 76  1  0
 28 77  1  0
 29 78  1  0
 29 79  1  0
 29 80  1  0
 31 81  1  0
 31 82  1  0
 31 83  1  0
 36 84  1  0
 37 85  1  0
 37 86  1  0
 39 87  1  0
M  END
> <Name>
RCGP2021_S3

> <Clean Energy>
115.406

$$$$
RCGP2021_S4a
  SciTegic12132405553D

 45 45  0  0  0  0            999 V2000
   -3.5806   -4.8492    0.2015 C   0  0  2  0  0  0
   -2.2654   -4.5790    1.0039 C   0  0  2  0  0  0
   -1.0737   -4.7788   -0.0041 C   0  0  1  0  0  0
   -1.1889   -3.8754   -1.1221 O   0  0
   -2.3940   -4.1126   -1.8726 C   0  0  1  0  0  0
   -3.6570   -3.8804   -0.9519 C   0  0  1  0  0  0
   -4.7905   -4.5800    0.9879 O   0  0
   -5.2958   -5.4984    1.9659 C   0  0
   -6.2896   -5.1439    2.6091 O   0  0
   -4.7928   -6.9155    2.1825 C   0  0
   -4.9242   -4.2136   -1.6223 O   0  0
   -2.2107   -5.5187    2.1247 O   0  0
   -2.3637   -3.1971   -3.1087 C   0  0
   -1.1940   -3.5060   -3.8746 O   0  0
   -5.7273   -3.2137   -2.2706 C   0  0
   -6.7483   -3.5956   -2.8529 O   0  0
   -5.5034   -1.7148   -2.1571 C   0  0
   -1.3022   -5.3469    3.2253 C   0  0
   -1.2988   -6.2219    4.0981 O   0  0
   -0.4332   -4.1253    3.4557 C   0  0
    0.1905   -4.5491    0.6124 N   0  0
    1.1550   -4.4178   -0.0501 N   0  3
    2.1203   -4.2862   -0.7124 N   0  5
   -1.1352   -2.7145   -5.0182 C   0  0
   -2.0230   -1.8860   -5.2503 O   0  0
    0.0089   -2.8782   -5.9785 C   0  0
   -3.5912   -5.8709   -0.2002 H   0  0
   -2.2853   -3.5457    1.3755 H   0  0
   -1.0932   -5.8072   -0.3895 H   0  0
   -2.4002   -5.1561   -2.2157 H   0  0
   -3.6752   -2.8646   -0.5445 H   0  0
   -4.8122   -7.1453    3.2567 H   0  0
   -3.8026   -7.0782    1.7525 H   0  0
   -5.5062   -7.5976    1.7009 H   0  0
   -2.3351   -2.1450   -2.7917 H   0  0
   -3.2590   -3.3738   -3.7190 H   0  0
   -4.4700   -1.4670   -1.9007 H   0  0
   -6.1603   -1.3481   -1.3510 H   0  0
   -5.8270   -1.2215   -3.0819 H   0  0
   -0.8758   -3.2324    2.9966 H   0  0
    0.5403   -4.3070    2.9807 H   0  0
   -0.2616   -3.9902    4.5335 H   0  0
   -0.0369   -2.1245   -6.7784 H   0  0
   -0.0356   -3.8915   -6.4054 H   0  0
    0.9568   -2.8168   -5.4239 H   0  0
  1  2  1  0
  2  3  1  0
  3  4  1  0
  4  5  1  0
  5  6  1  0
  1  6  1  0
  7  8  1  0
  8 10  1  0
  8  9  2  0
 13 14  1  0
 15 17  1  0
 15 16  2  0
 11 15  1  0
 18 20  1  0
 18 19  2  0
 12 18  1  0
 22 23  2  0
 21 22  2  0
 14 24  1  0
 24 25  2  0
 24 26  1  0
  1  7  1  0
  5 13  1  0
  3 21  1  0
  2 12  1  0
  6 11  1  0
  1 27  1  0
  2 28  1  0
  3 29  1  0
  5 30  1  0
  6 31  1  0
 10 32  1  0
 10 33  1  0
 10 34  1  0
 13 35  1  0
 13 36  1  0
 17 37  1  0
 17 38  1  0
 17 39  1  0
 20 40  1  0
 20 41  1  0
 20 42  1  0
 26 43  1  0
 26 44  1  0
 26 45  1  0
M  CHG  2  22   1  23  -1
M  END
> <Name>
RCGP2021_S4a

> <Clean Energy>
77.0813

$$$$
RCGP2021_S4b
  SciTegic12132405553D

 45 45  0  0  0  0            999 V2000
   -4.5777   -4.3029    0.5446 C   0  0  2  0  0  0
   -3.7187   -4.0929    1.8088 C   0  0  2  0  0  0
   -2.2105   -4.1027    1.4146 C   0  0  1  0  0  0
   -1.9314   -3.1125    0.3941 O   0  0
   -2.7005   -3.3919   -0.8269 C   0  0  1  0  0  0
   -4.2436   -3.2586   -0.4947 C   0  0  2  0  0  0
   -5.9946   -4.0330    0.8707 O   0  0
   -6.8713   -4.9304    1.5120 C   0  0
   -7.9691   -4.4928    1.8751 O   0  0
   -6.6411   -6.3971    1.5999 C   0  0
   -4.6294   -1.9915    0.1074 O   0  0
   -3.9835   -5.2256    2.7104 O   0  0
   -2.1691   -2.4785   -1.9624 C   0  0
   -0.7572   -2.8110   -2.0344 O   0  0
   -5.4015   -1.0236   -0.6346 C   0  0
   -5.7641   -0.0153   -0.0206 O   0  0
   -5.8999   -1.1787   -2.0726 C   0  0
   -3.9788   -5.1632    4.1305 C   0  0
   -4.0574   -6.2356    4.7409 O   0  0
   -4.1182   -3.9037    4.9342 C   0  0
   -1.4012   -3.8425    2.5835 N   0  0
   -0.2263   -3.7584    2.5048 N   0  3
    0.9476   -3.6745    2.4261 N   0  5
   -0.0163   -2.2068   -3.0538 C   0  0
   -0.5489   -1.4714   -3.8934 O   0  0
    1.4735   -2.4719   -3.0966 C   0  0
   -4.3855   -5.2886    0.1008 H   0  0
   -3.9817   -3.1144    2.2329 H   0  0
   -1.9393   -5.0757    0.9907 H   0  0
   -2.5020   -4.4234   -1.1559 H   0  0
   -4.8633   -3.4807   -1.3638 H   0  0
   -7.4895   -6.8792    2.1106 H   0  0
   -5.6985   -6.6120    2.0994 H   0  0
   -6.5542   -6.7732    0.5705 H   0  0
   -2.3080   -1.4174   -1.7245 H   0  0
   -2.6834   -2.7221   -2.9102 H   0  0
   -5.4085   -1.9981   -2.6060 H   0  0
   -5.7607   -0.2226   -2.5931 H   0  0
   -6.9900   -1.3564   -2.0457 H   0  0
   -4.1571   -3.0099    4.3115 H   0  0
   -3.3128   -3.8476    5.6744 H   0  0
   -5.0559   -4.0059    5.5165 H   0  0
    1.9511   -1.9893   -3.9614 H   0  0
    1.6471   -3.5597   -3.1015 H   0  0
    1.9135   -2.1000   -2.1569 H   0  0
  1  2  1  0
  2  3  1  0
  3  4  1  0
  4  5  1  0
  5  6  1  0
  1  6  1  0
  7  8  1  0
  8 10  1  0
  8  9  2  0
 13 14  1  0
 15 17  1  0
 15 16  2  0
 11 15  1  0
 18 20  1  0
 18 19  2  0
 12 18  1  0
 22 23  2  0
 21 22  2  0
 14 24  1  0
 24 25  2  0
 24 26  1  0
  1  7  1  0
  5 13  1  0
  3 21  1  0
  2 12  1  0
  6 11  1  0
  1 27  1  0
  2 28  1  0
  3 29  1  0
  5 30  1  0
  6 31  1  0
 10 32  1  0
 10 33  1  0
 10 34  1  0
 13 35  1  0
 13 36  1  0
 17 37  1  0
 17 38  1  0
 17 39  1  0
 20 40  1  0
 20 41  1  0
 20 42  1  0
 26 43  1  0
 26 44  1  0
 26 45  1  0
M  CHG  2  22   1  23  -1
M  END
> <Name>
RCGP2021_S4b

> <Clean Energy>
98.2276

$$$$
RCGP2021_S4d
  SciTegic12132405553D

 36 36  0  0  0  0            999 V2000
   -4.1016   -0.4033   -2.0137 C   0  0  2  0  0  0
   -3.1036   -0.2047   -0.8691 C   0  0  2  0  0  0
   -1.6714   -0.3906   -1.4185 C   0  0  1  0  0  0
   -1.4062    0.5340   -2.5116 O   0  0
   -2.2971    0.2162   -3.6214 C   0  0
   -3.7669    0.4741   -3.2264 C   0  0  1  0  0  0
   -5.3740    0.1323   -1.4847 O   0  0
   -6.2181   -0.4635   -0.5312 C   0  0
   -6.9190    0.2895    0.1509 O   0  0
   -6.6373   -1.8756   -0.6077 C   0  0
   -4.5893   -0.0342   -4.3450 O   0  0
   -3.3454   -1.3030    0.0923 O   0  0
   -4.8249    0.6727   -5.5570 C   0  0
   -5.2138    0.0212   -6.5336 O   0  0
   -4.9095    2.1641   -5.6567 C   0  0
   -2.9486   -1.3011    1.4529 C   0  0
   -2.9299   -2.3870    2.0435 O   0  0
   -2.8165   -0.0678    2.2847 C   0  0
   -0.7214   -0.1846   -0.3639 N   0  0
    0.4341   -0.2501   -0.5804 N   0  3
    1.5897   -0.3162   -0.7995 N   0  5
   -4.0625   -1.4487   -2.3473 H   0  0
   -3.2138    0.8151   -0.4675 H   0  0
   -1.5572   -1.4044   -1.8198 H   0  0
   -2.0466    0.8287   -4.4984 H   0  0
   -2.1693   -0.8472   -3.8695 H   0  0
   -3.9027    1.5356   -2.9765 H   0  0
   -7.1567   -2.1688    0.3199 H   0  0
   -5.8304   -2.5472   -0.8787 H   0  0
   -7.3835   -1.8944   -1.4261 H   0  0
   -5.0744    2.6085   -4.6692 H   0  0
   -5.7500    2.3926   -6.3437 H   0  0
   -4.0030    2.5745   -6.1065 H   0  0
   -3.3149    0.7808    1.8054 H   0  0
   -1.7635    0.1621    2.4620 H   0  0
   -3.2711   -0.2953    3.2695 H   0  0
  1  2  1  0
  2  3  1  0
  3  4  1  0
  4  5  1  0
  5  6  1  0
  1  6  1  0
  7  8  1  0
  8 10  1  0
  8  9  2  0
 13 15  1  0
 13 14  2  0
 11 13  1  0
 16 18  1  0
 16 17  2  0
 12 16  1  0
 20 21  2  0
 19 20  2  0
  6 11  1  0
  1  7  1  0
  2 12  1  0
  3 19  1  0
  1 22  1  0
  2 23  1  0
  3 24  1  0
  5 25  1  0
  5 26  1  0
  6 27  1  0
 10 28  1  0
 10 29  1  0
 10 30  1  0
 15 31  1  0
 15 32  1  0
 15 33  1  0
 18 34  1  0
 18 35  1  0
 18 36  1  0
M  CHG  2  20   1  21  -1
M  END
> <Name>
RCGP2021_S4d

> <Clean Energy>
109.283

$$$$
RCGP2021_S4e
  SciTegic12132405553D

 81 82  0  0  0  0            999 V2000
    1.0549   -6.1697    2.1990 C   0  0  2  0  0  0
    1.7598   -6.2539    3.6179 C   0  0  2  0  0  0
    3.1604   -6.8386    3.4340 C   0  0  1  0  0  0
    3.9428   -6.0438    2.5352 O   0  0
    3.3752   -6.0603    1.2059 C   0  0  1  0  0  0
    1.9895   -5.3777    1.1899 C   0  0  1  0  0  0
    0.6387   -3.0855   -2.7817 C   0  0  2  0  0  0
    1.1139   -2.9154   -1.2959 C   0  0  2  0  0  0
    0.1657   -3.5301   -0.3702 O   0  0
    0.1618   -4.9491   -0.5407 C   0  0  1  0  0  0
   -0.3210   -5.3482   -1.9502 C   0  0  1  0  0  0
    0.5720   -4.6578   -3.0302 C   0  0  1  0  0  0
    1.4905   -5.4661   -0.2486 O   0  0
   -0.2174   -5.4067    2.2942 O   0  0
    1.0870   -7.2121    4.5205 O   0  0
    3.8021   -6.8691    4.7261 N   0  0
    1.2807   -1.4545   -0.8461 C   0  0
    1.7558   -1.5643    0.5182 O   0  0
    1.6998   -2.5736   -3.6536 O   0  0
    1.4986   -2.5071   -5.0583 C   0  0
    2.4371   -2.8577   -5.7709 O   0  0
    0.6004   -1.4428   -5.6567 C   0  0
    2.0029   -0.3604    1.1768 C   0  0
    1.8203    0.7279    0.6189 O   0  0
    2.5087   -0.4182    2.6007 C   0  0
    0.1241   -4.9758   -4.4204 O   0  0
   -1.2108   -4.5057   -4.7968 C   0  0
   -1.9381   -3.8907   -4.0062 O   0  0
   -1.7160   -4.7329   -6.2067 C   0  0
   -0.1702   -6.8208   -1.9229 O   0  0
   -0.6524   -7.6615   -2.9216 C   0  0
   -1.3662   -7.2525   -3.8402 O   0  0
   -0.2633   -9.1339   -2.8340 C   0  0
    0.3741   -6.8460    5.6883 C   0  0
    0.2609   -5.4565    6.2141 C   0  0
   -0.1334   -7.7592    6.3500 O   0  0
    4.9310   -7.1901    4.8366 N   0  3
    6.0599   -7.5114    4.9453 N   0  5
   -1.4751   -5.9414    2.6575 C   0  0
   -1.7861   -7.3947    2.6742 C   0  0
   -2.4127   -5.1462    2.7894 O   0  0
    4.3752   -5.3483    0.2811 C   0  0
    5.5894   -6.1022    0.4444 O   0  0
    6.6960   -5.6490   -0.2636 C   0  0
    6.6359   -4.6543   -0.9966 O   0  0
    7.9888   -6.4052   -0.0928 C   0  0
    0.9429   -7.1833    1.7879 H   0  0
    1.8891   -5.2530    4.0508 H   0  0
    3.1038   -7.8527    3.0269 H   0  0
    3.2720   -7.1031    0.8769 H   0  0
    2.1015   -4.3380    1.5207 H   0  0
   -0.3347   -2.5903   -2.9215 H   0  0
    2.0892   -3.4111   -1.1899 H   0  0
   -0.5359   -5.4171    0.1397 H   0  0
   -1.3592   -5.0236   -2.0634 H   0  0
    1.5932   -5.0290   -2.8776 H   0  0
    0.3150   -0.9272   -0.8856 H   0  0
    2.0169   -0.9373   -1.4771 H   0  0
    0.6473   -1.4990   -6.7608 H   0  0
    1.0031   -0.4616   -5.3388 H   0  0
   -0.4232   -1.5113   -5.2902 H   0  0
    2.6673    0.5874    3.0174 H   0  0
    3.4435   -1.0015    2.6195 H   0  0
    1.7859   -0.9850    3.2083 H   0  0
   -2.7354   -4.3267   -6.3364 H   0  0
   -1.6919   -5.8073   -6.4290 H   0  0
   -1.0196   -4.2533   -6.9119 H   0  0
   -0.8631   -9.7578   -3.5097 H   0  0
   -0.3323   -9.4776   -1.7880 H   0  0
    0.8040   -9.2184   -3.1114 H   0  0
   -0.2761   -5.4645    7.1785 H   0  0
   -0.2675   -4.8417    5.4804 H   0  0
    1.2674   -5.0320    6.3295 H   0  0
   -2.8734   -7.5381    2.8062 H   0  0
   -1.2299   -7.8842    3.4726 H   0  0
   -1.4483   -7.8307    1.7222 H   0  0
    4.5163   -4.3058    0.6074 H   0  0
    4.0235   -5.3684   -0.7640 H   0  0
    8.7997   -5.9708   -0.6928 H   0  0
    7.8168   -7.4581   -0.3649 H   0  0
    8.2520   -6.4089    0.9779 H   0  0
  1  2  1  0
  2  3  1  0
  3  4  1  0
  5  4  1  0
  6  5  1  0
  1  6  1  0
  7  8  1  0
  8  9  1  0
 10  9  1  0
 11 10  1  0
 12 11  1  0
  7 12  1  0
 17 18  1  0
 19 20  1  0
 20 22  1  0
 18 23  1  0
 23 25  1  0
 26 27  1  0
 27 29  1  0
 30 31  1  0
 31 33  1  0
 23 24  2  0
 20 21  2  0
 27 28  2  0
 31 32  2  0
 15 34  1  0
 34 35  1  0
 34 36  2  0
 37 38  2  0
 16 37  2  0
  3 16  1  0
  6 13  1  0
 14 39  1  0
 39 40  1  0
 39 41  2  0
  1 14  1  0
  2 15  1  0
 10 13  1  0
 11 30  1  0
 12 26  1  0
  7 19  1  0
  8 17  1  0
 42 43  1  0
 43 44  1  0
 44 46  1  0
 44 45  2  0
  5 42  1  0
  1 47  1  0
  2 48  1  0
  3 49  1  0
  5 50  1  0
  6 51  1  0
  7 52  1  0
  8 53  1  0
 10 54  1  0
 11 55  1  0
 12 56  1  0
 17 57  1  0
 17 58  1  0
 22 59  1  0
 22 60  1  0
 22 61  1  0
 25 62  1  0
 25 63  1  0
 25 64  1  0
 29 65  1  0
 29 66  1  0
 29 67  1  0
 33 68  1  0
 33 69  1  0
 33 70  1  0
 35 71  1  0
 35 72  1  0
 35 73  1  0
 40 74  1  0
 40 75  1  0
 40 76  1  0
 42 77  1  0
 42 78  1  0
 46 79  1  0
 46 80  1  0
 46 81  1  0
M  CHG  2  37   1  38  -1
M  END
> <Name>
RCGP2021_S4e

> <Clean Energy>
163.798

$$$$
RCGP2021_S5a
  SciTegic12132405553D

131137  0  0  0  0            999 V2000
   -1.1048    0.6247   -4.6122 C   0  0
   -1.8088    0.1909   -5.9135 C   0  0
   -1.9795   -1.2806   -5.8779 C   0  0
   -0.7414   -2.0958   -5.8185 C   0  0  1  0  0  0
   -0.0355   -1.7691   -4.4397 C   0  0  2  0  0  0
    0.2584   -0.1644   -4.4494 C   0  0  2  0  0  0
    1.1287    0.3724   -3.1803 C   0  0  1  0  0  0
    1.3431   -2.4713   -4.3684 C   0  0
    2.2237   -2.0641   -3.1277 C   0  0
    2.5415   -0.5233   -3.2361 C   0  0  2  0  0  0
    2.6092    2.3899   -2.3133 C   0  0
    1.5119    1.8691   -3.3938 C   0  0
    3.7071   -0.0221   -2.1396 C   0  0  2  0  0  0
    3.9828    1.5653   -2.4371 C   0  0  2  0  0  0
    5.0994    2.1180   -1.2222 C   0  0  1  0  0  0
    5.1284   -0.7927   -2.3324 C   0  0
    6.1808   -0.2729   -1.2558 C   0  0
    6.5123    1.2746   -1.2666 C   0  0  1  0  0  0
    6.5244    4.2862   -2.2186 C   0  0  1  0  0  0
    5.5523    3.7060   -1.1078 C   0  0
    7.4478    1.8126   -2.5028 C   0  0
    7.7965    3.3770   -2.2694 C   0  0
   -3.0945   -1.8044   -5.9725 O   0  0
   -1.0669   -3.5954   -6.0776 C   0  0
   -0.9633   -2.3259   -3.2675 C   0  0
    0.2665    0.3818   -1.8192 C   0  0
    3.2318   -0.3513   -0.6192 C   0  0
    7.3630    1.4350    0.0486 C   0  0
    4.4581    1.6975   -3.9883 C   0  0
    5.9171    4.5081   -3.5446 C   0  0
    6.9392    5.6960   -1.8071 C   0  0
    0.8835    0.0210   -5.3335 H   0  0
    2.9610   -0.3759   -4.2243 H   0  0
    4.5744    1.8872   -0.2980 H   0  0
    6.6067    4.4028   -4.5646 O   0  0
    4.5847    4.9342   -3.6350 O   0  0
   -2.5163    8.5558   -3.3407 O   0  0
   -3.2764    7.9728   -4.3947 C   0  0
   -2.3773    7.7989   -5.6301 C   0  0  1  0  0  0
   -1.2802    6.9965   -5.1867 O   0  0
   -0.2643    6.8553   -6.1847 C   0  0  1  0  0  0
    0.8053    6.1140   -5.6147 N   0  0
   -0.8404    6.1078   -7.4184 C   0  0  2  0  0  0
    0.1870    5.8795   -8.4414 O   0  0
   -2.0306    6.9381   -7.9800 C   0  0  1  0  0  0
   -2.6218    6.3120   -9.1704 O   0  0
   -3.0951    7.0999   -6.8768 C   0  0  2  0  0  0
   -4.1882    7.8678   -7.4852 O   0  0
    2.1216    6.2549   -5.9079 C   0  0
    2.7488    5.4519   -5.0830 C   0  0
    1.7853    4.8266   -4.2824 N   0  0
    0.6737    5.2263   -4.6112 N   0  0
    4.2219    5.2187   -5.0022 C   0  0
   -5.4378    7.8049   -6.8427 C   0  0
   -6.5867    8.5844   -7.3998 C   0  0
   -5.6171    7.0726   -5.8640 O   0  0
   -3.1781    5.0059   -9.0460 C   0  0
   -3.8110    4.3843  -10.2523 C   0  0
   -3.1724    4.3735   -7.9826 O   0  0
    0.8210    7.0035   -9.0348 C   0  0
    1.8825    6.7558  -10.0606 C   0  0
    0.5458    8.1686   -8.7239 O   0  0
   -3.3057    8.6557   -2.2012 C   0  0
   -2.7212    9.2048   -0.9364 C   0  0
   -4.4801    8.2692   -2.2210 O   0  0
   -0.9217    1.7042   -4.6688 H   0  0
   -1.7544    0.4118   -3.7551 H   0  0
   -2.7709    0.7076   -6.0323 H   0  0
   -1.1189    0.4439   -6.7309 H   0  0
   -0.0489   -1.7253   -6.5873 H   0  0
    1.9203   -2.1767   -5.2554 H   0  0
    1.1887   -3.5569   -4.3797 H   0  0
    1.7307   -2.3013   -2.1761 H   0  0
    3.1619   -2.6248   -3.2009 H   0  0
    2.8239    3.4469   -2.5174 H   0  0
    2.2130    2.2959   -1.2971 H   0  0
    0.6037    2.4831   -3.3546 H   0  0
    1.9462    1.9732   -4.3820 H   0  0
    5.5217   -0.6362   -3.3375 H   0  0
    4.9773   -1.8679   -2.1768 H   0  0
    5.7521   -0.4866   -0.2877 H   0  0
    7.1235   -0.8297   -1.3339 H   0  0
    6.1257    3.7771   -0.1824 H   0  0
    4.6642    4.3455   -1.0190 H   0  0
    6.9760    1.6886   -3.4453 H   0  0
    8.3846    1.2409   -2.5041 H   0  0
    8.2950    3.4514   -1.3067 H   0  0
    8.4782    3.7569   -3.0417 H   0  0
   -0.1440   -4.1891   -6.0515 H   0  0
   -1.5313   -3.6925   -7.0685 H   0  0
   -1.7641   -3.9701   -5.3185 H   0  0
   -0.5129   -2.1550   -2.3084 H   0  0
   -1.0930   -3.4061   -3.3824 H   0  0
   -1.9467   -1.8413   -3.2948 H   0  0
   -0.6216    1.0071   -1.9579 H   0  0
    0.8237    0.8001   -1.0101 H   0  0
   -0.0353   -0.5973   -1.5373 H   0  0
    3.0871   -1.4328   -0.5128 H   0  0
    2.3433    0.1382   -0.3728 H   0  0
    3.9665   -0.0306    0.1105 H   0  0
    7.6476    2.4697    0.2350 H   0  0
    8.2710    0.8236   -0.0386 H   0  0
    6.7648    1.0788    0.8981 H   0  0
    4.6036    2.6804   -4.2256 H   0  0
    3.7265    1.3159   -4.6839 H   0  0
    5.3701    1.1555   -4.1648 H   0  0
    7.6395    6.1008   -2.5507 H   0  0
    7.4270    5.6582   -0.8231 H   0  0
    6.0478    6.3361   -1.7530 H   0  0
   -3.6324    6.9836   -4.0740 H   0  0
   -4.1333    8.6124   -4.6335 H   0  0
   -1.9968    8.7817   -5.9403 H   0  0
    0.1037    7.8381   -6.5013 H   0  0
   -1.2072    5.1257   -7.0947 H   0  0
   -1.6683    7.9311   -8.2693 H   0  0
   -3.4606    6.1081   -6.5899 H   0  0
    2.5516    6.8796   -6.6484 H   0  0
    4.4403    4.3175   -5.5907 H   0  0
    4.7872    6.0601   -5.4256 H   0  0
   -6.5339    9.6044   -6.9926 H   0  0
   -7.5417    8.1342   -7.0931 H   0  0
   -6.4944    8.6597   -8.4931 H   0  0
   -3.5317    3.3232  -10.3120 H   0  0
   -3.5340    4.9349  -11.1633 H   0  0
   -4.9030    4.4205  -10.1221 H   0  0
    2.0661    7.6597  -10.6570 H   0  0
    1.6010    5.8957  -10.6864 H   0  0
    2.8075    6.4808   -9.5313 H   0  0
   -3.4399    9.8896   -0.4653 H   0  0
   -1.7562    9.6934   -1.1331 H   0  0
   -2.5741    8.3684   -0.2362 H   0  0
  1  2  1  0
  2  3  1  0
  3  4  1  0
  4  5  1  0
  5  6  1  0
  1  6  1  0
  8  9  1  0
  9 10  1  0
  7 10  1  0
  5  8  1  0
  7  6  1  0
 11 12  1  0
 13 14  1  0
 11 14  1  0
 12  7  1  0
 16 17  1  0
 17 18  1  0
 15 18  1  0
 13 16  1  0
 15 14  1  0
 19 20  1  0
 21 22  1  0
 19 22  1  0
 20 15  1  0
 18 21  1  0
  3 23  2  0
 10 13  1  0
 19 30  1  0
 19 31  1  0
  4 24  1  0
  5 25  1  0
  6 32  1  0
 10 33  1  0
  7 26  1  0
 13 27  1  0
 14 29  1  0
 18 28  1  0
 15 34  1  0
 30 36  1  0
 30 35  2  0
 37 38  1  0
 39 38  1  0
 39 40  1  0
 40 41  1  0
 41 42  1  0
 41 43  1  0
 43 44  1  0
 43 45  1  0
 45 46  1  0
 45 47  1  0
 39 47  1  0
 47 48  1  0
 50 51  1  0
 52 42  1  0
 49 42  1  0
 51 52  2  0
 49 50  2  0
 50 53  1  0
 53 36  1  0
 64 63  1  0
 63 37  1  0
 63 65  2  0
 61 60  1  0
 60 44  1  0
 60 62  2  0
 58 57  1  0
 57 46  1  0
 57 59  2  0
 55 54  1  0
 54 48  1  0
 54 56  2  0
  1 66  1  0
  1 67  1  0
  2 68  1  0
  2 69  1  0
  4 70  1  0
  8 71  1  0
  8 72  1  0
  9 73  1  0
  9 74  1  0
 11 75  1  0
 11 76  1  0
 12 77  1  0
 12 78  1  0
 16 79  1  0
 16 80  1  0
 17 81  1  0
 17 82  1  0
 20 83  1  0
 20 84  1  0
 21 85  1  0
 21 86  1  0
 22 87  1  0
 22 88  1  0
 24 89  1  0
 24 90  1  0
 24 91  1  0
 25 92  1  0
 25 93  1  0
 25 94  1  0
 26 95  1  0
 26 96  1  0
 26 97  1  0
 27 98  1  0
 27 99  1  0
 27100  1  0
 28101  1  0
 28102  1  0
 28103  1  0
 29104  1  0
 29105  1  0
 29106  1  0
 31107  1  0
 31108  1  0
 31109  1  0
 38110  1  0
 38111  1  0
 39112  1  0
 41113  1  0
 43114  1  0
 45115  1  0
 47116  1  0
 49117  1  0
 53118  1  0
 53119  1  0
 55120  1  0
 55121  1  0
 55122  1  0
 58123  1  0
 58124  1  0
 58125  1  0
 61126  1  0
 61127  1  0
 61128  1  0
 64129  1  0
 64130  1  0
 64131  1  0
M  END
> <Name>
RCGP2021_S5a

> <Clean Energy>
188.859

$$$$
RCGP2021_S5b
  SciTegic12132405553D

131137  0  0  0  0            999 V2000
   -4.7227   -0.4201   -4.1528 C   0  0
   -3.2548   -0.8914   -4.0848 C   0  0
   -3.2334   -2.3659   -4.2335 C   0  0
   -3.9356   -3.1523   -3.1913 C   0  0  1  0  0  0
   -5.4726   -2.7901   -3.2965 C   0  0  2  0  0  0
   -5.5806   -1.1742   -3.0572 C   0  0  2  0  0  0
   -7.1093   -0.6019   -2.9727 C   0  0  1  0  0  0
   -6.2542   -3.4611   -2.1431 C   0  0
   -7.7589   -3.0230   -2.0354 C   0  0
   -7.8083   -1.4743   -1.7267 C   0  0  2  0  0  0
   -8.6088    1.4461   -2.1835 C   0  0
   -7.1093    0.9100   -2.5474 C   0  0
   -9.3460   -0.9603   -1.3134 C   0  0  2  0  0  0
   -9.2342    0.6330   -0.9386 C   0  0  2  0  0  0
  -10.8645    1.1800   -0.6279 C   0  0  1  0  0  0
   -9.9238   -1.7191    0.0057 C   0  0
  -11.3906   -1.2063    0.3317 C   0  0
  -11.5637    0.3371    0.6056 C   0  0  1  0  0  0
  -10.7905    3.3494    1.0986 C   0  0  1  0  0  0
  -11.2173    2.7632   -0.3098 C   0  0
  -11.0049    0.8836    2.0443 C   0  0
  -11.4016    2.4420    2.2126 C   0  0
   -2.6002   -2.9154   -5.1411 O   0  0
   -3.5823   -4.6646   -3.3210 C   0  0
   -6.0153   -3.3541   -4.6880 C   0  0
   -7.8224   -0.5955   -4.4177 C   0  0
  -10.3947   -1.2993   -2.5122 C   0  0
  -13.1314    0.4841    0.6384 C   0  0
   -8.1621    0.7837    0.2743 C   0  0
   -9.3550    3.5786    1.2674 C   0  0
  -11.3689    4.7556    1.2241 C   0  0
   -5.1397   -0.9877   -2.0689 H   0  0
   -7.1816   -1.3219   -0.8542 H   0  0
  -11.3735    0.9402   -1.5580 H   0  0
   -8.8254    3.4233    2.3732 O   0  0
   -8.6191    4.0809    0.1948 O   0  0
   -4.0834    7.3285   -6.2690 O   0  0
   -2.9596    6.4839   -6.0381 C   0  0
   -2.6533    6.4452   -4.5300 C   0  0  1  0  0  0
   -3.8327    5.9441   -3.8737 O   0  0
   -3.7462    5.9951   -2.4459 C   0  0  1  0  0  0
   -4.9616    5.4436   -1.9170 N   0  0
   -2.5239    5.1614   -1.9327 C   0  0  2  0  0  0
   -2.4008    5.1500   -0.4351 O   0  0
   -1.2362    5.6749   -2.5920 C   0  0  1  0  0  0
   -0.1346    4.8708   -2.1164 O   0  0
   -1.3996    5.5436   -4.1247 C   0  0  1  0  0  0
   -1.5599    4.1046   -4.3852 O   0  0
   -5.3548    5.4172   -0.6209 C   0  0
   -6.4694    4.7270   -0.6073 C   0  0
   -6.7598    4.3446   -1.9247 N   0  0
   -5.8734    4.7708   -2.6582 N   0  0
   -7.2747    4.3733    0.5912 C   0  0
   -1.3522    3.6610   -5.7016 C   0  0
   -1.5412    2.2118   -6.0198 C   0  0
   -0.9698    4.4350   -6.5853 O   0  0
    1.1269    5.3285   -2.5335 C   0  0
    2.3486    4.5689   -2.1215 C   0  0
    1.2505    6.3632   -3.2000 O   0  0
   -2.1647    6.3236    0.4314 C   0  0
   -2.0157    7.7817   -0.0018 C   0  0
   -2.0917    6.1027    1.6449 O   0  0
   -4.3662    7.3601   -7.6298 C   0  0
   -5.5120    8.1823   -8.1343 C   0  0
   -3.6765    6.7106   -8.4245 O   0  0
   -4.7431    0.6624   -3.9801 H   0  0
   -5.1295   -0.6363   -5.1478 H   0  0
   -2.6479   -0.3998   -4.8562 H   0  0
   -2.8994   -0.6357   -3.0772 H   0  0
   -3.6213   -2.7778   -2.2074 H   0  0
   -5.7846   -3.1650   -1.1955 H   0  0
   -6.1882   -4.5500   -2.2566 H   0  0
   -8.3213   -3.2632   -2.9464 H   0  0
   -8.1908   -3.5666   -1.1885 H   0  0
   -8.5435    2.5066   -1.9041 H   0  0
   -9.2646    1.3457   -3.0541 H   0  0
   -6.6611    1.5101   -3.3493 H   0  0
   -6.4938    1.0167   -1.6607 H   0  0
   -9.2726   -1.5529    0.8650 H   0  0
   -9.9756   -2.7962   -0.1944 H   0  0
  -11.9893   -1.4315   -0.5382 H   0  0
  -11.8149   -1.7579    1.1805 H   0  0
  -12.3063    2.8236   -0.3100 H   0  0
  -10.8312    3.4037   -1.1138 H   0  0
   -9.9531    0.7684    2.1349 H   0  0
  -11.4890    0.3112    2.8459 H   0  0
  -12.4833    2.5059    2.1351 H   0  0
  -11.1024    2.8295    3.1952 H   0  0
   -4.0914   -5.2374   -2.5348 H   0  0
   -2.4963   -4.7874   -3.2114 H   0  0
   -3.8866   -5.0442   -4.3041 H   0  0
   -7.0660   -3.1617   -4.7960 H   0  0
   -5.8743   -4.4385   -4.7264 H   0  0
   -5.4773   -2.8924   -5.5245 H   0  0
   -7.2324    0.0134   -5.1103 H   0  0
   -8.7971   -0.1613   -4.3671 H   0  0
   -7.9219   -1.5762   -4.8124 H   0  0
  -10.4133   -2.3823   -2.6809 H   0  0
  -10.1386   -0.8192   -3.4030 H   0  0
  -11.4003   -0.9739   -2.2716 H   0  0
  -13.4489    1.5168    0.7762 H   0  0
  -13.5282   -0.1257    1.4609 H   0  0
  -13.5372    0.1182   -0.3144 H   0  0
   -8.0357    1.7773    0.5092 H   0  0
   -7.1869    0.3977    0.0183 H   0  0
   -8.4883    0.2527    1.1512 H   0  0
  -11.1062    5.1705    2.2069 H   0  0
  -12.4620    4.7087    1.1234 H   0  0
  -10.9520    5.3922    0.4313 H   0  0
   -3.1908    5.4739   -6.3937 H   0  0
   -2.0869    6.8748   -6.5793 H   0  0
   -2.4548    7.4774   -4.2092 H   0  0
   -3.6267    7.0273   -2.1217 H   0  0
   -2.6651    4.1201   -2.2526 H   0  0
   -1.0714    6.7153   -2.3223 H   0  0
   -0.4891    5.9070   -4.6146 H   0  0
   -4.8561    5.8389    0.2107 H   0  0
   -6.8366    3.4625    1.0210 H   0  0
   -7.2176    5.1637    1.3520 H   0  0
   -1.0213    1.9479   -6.9514 H   0  0
   -2.6188    2.0286   -6.1471 H   0  0
   -1.2081    1.5969   -5.1703 H   0  0
    3.2471    4.9804   -2.6031 H   0  0
    2.2110    3.5056   -2.3664 H   0  0
    2.4420    4.6277   -1.0273 H   0  0
   -1.8930    8.4343    0.8738 H   0  0
   -2.8935    8.0779   -0.5873 H   0  0
   -1.1491    7.8703   -0.6687 H   0  0
   -5.7197    7.9563   -9.1902 H   0  0
   -5.2494    9.2444   -8.0246 H   0  0
   -6.3929    8.0082   -7.4995 H   0  0
  1  2  1  0
  2  3  1  0
  3  4  1  0
  4  5  1  0
  5  6  1  0
  1  6  1  0
  8  9  1  0
  9 10  1  0
  7 10  1  0
  5  8  1  0
  7  6  1  0
 11 12  1  0
 13 14  1  0
 11 14  1  0
 12  7  1  0
 16 17  1  0
 17 18  1  0
 15 18  1  0
 13 16  1  0
 15 14  1  0
 19 20  1  0
 21 22  1  0
 19 22  1  0
 20 15  1  0
 18 21  1  0
  3 23  2  0
 10 13  1  0
 19 30  1  0
 19 31  1  0
  4 24  1  0
  5 25  1  0
  6 32  1  0
 10 33  1  0
  7 26  1  0
 13 27  1  0
 14 29  1  0
 18 28  1  0
 15 34  1  0
 30 36  1  0
 30 35  2  0
 37 38  1  0
 39 38  1  0
 39 40  1  0
 40 41  1  0
 41 42  1  0
 41 43  1  0
 43 44  1  0
 43 45  1  0
 45 46  1  0
 45 47  1  0
 39 47  1  0
 47 48  1  0
 50 51  1  0
 52 42  1  0
 49 42  1  0
 51 52  2  0
 49 50  2  0
 50 53  1  0
 53 36  1  0
 64 63  1  0
 63 37  1  0
 63 65  2  0
 61 60  1  0
 60 44  1  0
 60 62  2  0
 58 57  1  0
 57 46  1  0
 57 59  2  0
 55 54  1  0
 54 48  1  0
 54 56  2  0
  1 66  1  0
  1 67  1  0
  2 68  1  0
  2 69  1  0
  4 70  1  0
  8 71  1  0
  8 72  1  0
  9 73  1  0
  9 74  1  0
 11 75  1  0
 11 76  1  0
 12 77  1  0
 12 78  1  0
 16 79  1  0
 16 80  1  0
 17 81  1  0
 17 82  1  0
 20 83  1  0
 20 84  1  0
 21 85  1  0
 21 86  1  0
 22 87  1  0
 22 88  1  0
 24 89  1  0
 24 90  1  0
 24 91  1  0
 25 92  1  0
 25 93  1  0
 25 94  1  0
 26 95  1  0
 26 96  1  0
 26 97  1  0
 27 98  1  0
 27 99  1  0
 27100  1  0
 28101  1  0
 28102  1  0
 28103  1  0
 29104  1  0
 29105  1  0
 29106  1  0
 31107  1  0
 31108  1  0
 31109  1  0
 38110  1  0
 38111  1  0
 39112  1  0
 41113  1  0
 43114  1  0
 45115  1  0
 47116  1  0
 49117  1  0
 53118  1  0
 53119  1  0
 55120  1  0
 55121  1  0
 55122  1  0
 58123  1  0
 58124  1  0
 58125  1  0
 61126  1  0
 61127  1  0
 61128  1  0
 64129  1  0
 64130  1  0
 64131  1  0
M  END
> <Name>
RCGP2021_S5b

> <Clean Energy>
193.719

$$$$
RCGP2021_S5c
  SciTegic12132405553D

125131  0  0  0  0            999 V2000
   -2.6615    0.7079   -2.5823 C   0  0
   -1.5818    1.6924   -3.0760 C   0  0
   -0.4142    0.9047   -3.5422 C   0  0
    0.2680    0.0588   -2.5320 C   0  0  1  0  0  0
   -0.7703   -1.0452   -2.0767 C   0  0  2  0  0  0
   -2.0587   -0.2396   -1.4697 C   0  0  2  0  0  0
   -3.1988   -1.1937   -0.7942 C   0  0  1  0  0  0
   -0.1809   -1.8780   -0.9146 C   0  0
   -1.1927   -2.8809   -0.2533 C   0  0
   -2.3730   -2.0481    0.3852 C   0  0  2  0  0  0
   -5.2866   -1.2237    0.8498 C   0  0
   -4.2877   -0.3207   -0.0732 C   0  0
   -3.3557   -2.9857    1.3618 C   0  0  2  0  0  0
   -4.4733   -1.9823    2.0201 C   0  0  2  0  0  0
   -5.5621   -2.9972    2.9448 C   0  0  1  0  0  0
   -2.5405   -3.6643    2.5961 C   0  0
   -3.5179   -4.5546    3.4750 C   0  0
   -4.7604   -3.8280    4.1213 C   0  0  1  0  0  0
   -6.6968   -1.4971    4.9780 C   0  0  1  0  0  0
   -6.9087   -2.3978    3.6962 C   0  0
   -4.4443   -2.8371    5.3867 C   0  0
   -5.8369   -2.3012    6.0067 C   0  0
    0.0144    1.0049   -4.6967 O   0  0
    1.6234   -0.4708   -3.0901 C   0  0
   -1.0400   -2.0088   -3.3202 C   0  0
   -4.0326   -2.0081   -1.9063 C   0  0
   -3.9813   -4.2245    0.5118 C   0  0
   -5.5867   -5.0438    4.6872 C   0  0
   -3.6713   -0.8177    2.8347 C   0  0
   -6.1822   -0.1619    4.6877 C   0  0
   -8.0638   -1.2036    5.5893 C   0  0
   -1.6670    0.3779   -0.6502 H   0  0
   -1.9047   -1.3115    1.0283 H   0  0
   -5.9252   -3.6977    2.1968 H   0  0
   -5.3994    0.3999    5.4615 O   0  0
   -6.6743    0.4934    3.5628 O   0  0
   -8.2814    5.5924   -2.5186 C   0  0  1  0  0  0
   -8.2907    4.4171   -1.4704 C   0  0  1  0  0  0
   -7.1812    4.7176   -0.3991 C   0  0  2  0  0  0
   -5.8737    4.8985   -1.0112 O   0  0
   -5.8783    6.0175   -1.9172 C   0  0  2  0  0  0
   -6.8305    5.7466   -3.1082 C   0  0  1  0  0  0
   -4.4595    6.2730   -2.4516 C   0  0
   -6.3495    4.6106   -4.0075 O   0  0
   -9.1327    5.3839   -3.7163 O   0  0
   -9.5636    4.1626   -0.7703 O   0  0
   -7.1123    3.6143    0.4865 N   0  0
   -7.3971    5.6299    0.1647 H   0  0
   -6.5139    3.6018    1.6955 C   0  0
   -6.6760    2.3808    2.1477 C   0  0
   -7.3881    1.6509    1.1827 N   0  0
   -7.6253    2.3898    0.2340 N   0  0
   -6.1862    1.8314    3.4387 C   0  0
  -10.0495    5.1672    0.1331 C   0  0
  -11.3049    4.8926    0.9069 C   0  0
   -9.4857    6.2581    0.2832 O   0  0
  -10.5520    5.5763   -3.7479 C   0  0
  -11.3619    6.1968   -2.6534 C   0  0
  -11.1374    5.3086   -4.8026 O   0  0
   -5.9804    3.2739   -3.5970 C   0  0
   -5.5477    2.3045   -4.6497 C   0  0
   -5.9569    2.9048   -2.4218 O   0  0
   -3.4978    1.2926   -2.1799 H   0  0
   -3.0158    0.1024   -3.4250 H   0  0
   -1.9758    2.3418   -3.8702 H   0  0
   -1.2801    2.2786   -2.1969 H   0  0
    0.4459    0.6691   -1.6357 H   0  0
    0.1209   -1.1850   -0.1177 H   0  0
    0.7008   -2.4198   -1.2779 H   0  0
   -1.5716   -3.6171   -0.9736 H   0  0
   -0.6526   -3.3998    0.5457 H   0  0
   -6.0249   -0.5596    1.3176 H   0  0
   -5.8097   -1.9588    0.2299 H   0  0
   -4.8514    0.2472   -0.8249 H   0  0
   -3.7843    0.3866    0.5766 H   0  0
   -2.0751   -2.9000    3.2197 H   0  0
   -1.7557   -4.3155    2.1923 H   0  0
   -3.9158   -5.3105    2.8132 H   0  0
   -2.9636   -5.0664    4.2721 H   0  0
   -7.4530   -3.2697    4.0599 H   0  0
   -7.5409   -1.8689    2.9705 H   0  0
   -3.8378   -2.0142    5.1068 H   0  0
   -3.9163   -3.4126    6.1577 H   0  0
   -6.4105   -3.1759    6.3024 H   0  0
   -5.6681   -1.6813    6.8968 H   0  0
    2.1297   -1.0801   -2.3296 H   0  0
    2.2608    0.3852   -3.3498 H   0  0
    1.4550   -1.0758   -3.9893 H   0  0
   -1.7174   -2.7979   -3.0538 H   0  0
   -0.1012   -2.4741   -3.6361 H   0  0
   -1.4600   -1.4422   -4.1597 H   0  0
   -4.5003   -1.3001   -2.5987 H   0  0
   -4.8172   -2.5799   -1.4606 H   0  0
   -3.4125   -2.6746   -2.4536 H   0  0
   -3.1653   -4.8460    0.1249 H   0  0
   -4.5674   -3.8936   -0.2872 H   0  0
   -4.6250   -4.8473    1.1226 H   0  0
   -6.5260   -4.7314    5.1422 H   0  0
   -4.9807   -5.5659    5.4393 H   0  0
   -5.8106   -5.7306    3.8596 H   0  0
   -4.3356   -0.1410    3.2325 H   0  0
   -2.9987   -0.2566    2.2042 H   0  0
   -3.0784   -1.2361    3.6286 H   0  0
   -7.9344   -0.5934    6.4936 H   0  0
   -8.5557   -2.1507    5.8502 H   0  0
   -8.6781   -0.6570    4.8601 H   0  0
   -8.5296    6.5329   -2.0081 H   0  0
   -8.0227    3.5069   -1.9979 H   0  0
   -6.2245    6.9058   -1.3701 H   0  0
   -6.8491    6.6294   -3.7612 H   0  0
   -4.4767    7.1368   -3.1310 H   0  0
   -4.1073    5.3856   -2.9956 H   0  0
   -3.7837    6.4796   -1.6103 H   0  0
   -6.0134    4.4046    2.1736 H   0  0
   -5.0881    1.8439    3.4244 H   0  0
   -6.5061    2.4711    4.2722 H   0  0
  -11.4893    5.6840    1.6473 H   0  0
  -11.2270    3.9041    1.3824 H   0  0
  -12.1434    4.8339    0.1978 H   0  0
  -11.7636    5.3862   -2.0327 H   0  0
  -12.2164    6.7390   -3.0817 H   0  0
  -10.7416    6.8453   -2.0203 H   0  0
   -5.8609    1.2870   -4.3735 H   0  0
   -4.4480    2.3102   -4.6846 H   0  0
   -5.9335    2.6062   -5.6339 H   0  0
  1  2  1  0
  2  3  1  0
  3  4  1  0
  4  5  1  0
  5  6  1  0
  1  6  1  0
  8  9  1  0
  9 10  1  0
  7 10  1  0
  5  8  1  0
  7  6  1  0
 11 12  1  0
 13 14  1  0
 11 14  1  0
 12  7  1  0
 16 17  1  0
 17 18  1  0
 15 18  1  0
 13 16  1  0
 15 14  1  0
 19 20  1  0
 21 22  1  0
 19 22  1  0
 20 15  1  0
 18 21  1  0
  3 23  2  0
 10 13  1  0
 19 30  1  0
 19 31  1  0
  4 24  1  0
  5 25  1  0
  6 32  1  0
 10 33  1  0
  7 26  1  0
 13 27  1  0
 14 29  1  0
 18 28  1  0
 15 34  1  0
 30 36  1  0
 30 35  2  0
 37 38  1  0
 38 39  1  0
 39 40  1  0
 40 41  1  0
 41 42  1  0
 37 42  1  0
 39 47  1  0
 39 48  1  0
 41 43  1  0
 42 44  1  0
 37 45  1  0
 38 46  1  0
 50 51  1  0
 52 47  1  0
 49 47  1  0
 51 52  2  0
 49 50  2  0
 50 53  1  0
 53 36  1  0
 61 60  1  0
 60 44  1  0
 60 62  2  0
 58 57  1  0
 57 45  1  0
 57 59  2  0
 55 54  1  0
 54 46  1  0
 54 56  2  0
  1 63  1  0
  1 64  1  0
  2 65  1  0
  2 66  1  0
  4 67  1  0
  8 68  1  0
  8 69  1  0
  9 70  1  0
  9 71  1  0
 11 72  1  0
 11 73  1  0
 12 74  1  0
 12 75  1  0
 16 76  1  0
 16 77  1  0
 17 78  1  0
 17 79  1  0
 20 80  1  0
 20 81  1  0
 21 82  1  0
 21 83  1  0
 22 84  1  0
 22 85  1  0
 24 86  1  0
 24 87  1  0
 24 88  1  0
 25 89  1  0
 25 90  1  0
 25 91  1  0
 26 92  1  0
 26 93  1  0
 26 94  1  0
 27 95  1  0
 27 96  1  0
 27 97  1  0
 28 98  1  0
 28 99  1  0
 28100  1  0
 29101  1  0
 29102  1  0
 29103  1  0
 31104  1  0
 31105  1  0
 31106  1  0
 37107  1  0
 38108  1  0
 41109  1  0
 42110  1  0
 43111  1  0
 43112  1  0
 43113  1  0
 49114  1  0
 53115  1  0
 53116  1  0
 55117  1  0
 55118  1  0
 55119  1  0
 58120  1  0
 58121  1  0
 58122  1  0
 61123  1  0
 61124  1  0
 61125  1  0
M  END
> <Name>
RCGP2021_S5c

> <Clean Energy>
190.704

$$$$
RCGP2021_S5d
  SciTegic12132405553D

122128  0  0  0  0            999 V2000
   -5.1005   -0.5597   -6.2728 C   0  0
   -5.3810   -0.6500   -7.7887 C   0  0
   -5.0450   -2.0186   -8.2433 C   0  0
   -3.6325   -2.4450   -8.0887 C   0  0  1  0  0  0
   -3.3287   -2.4848   -6.5361 C   0  0  2  0  0  0
   -3.6006   -0.9707   -5.9770 C   0  0  2  0  0  0
   -3.1985   -0.7461   -4.4077 C   0  0  1  0  0  0
   -1.8293   -2.7823   -6.2971 C   0  0
   -1.3720   -2.6626   -4.7988 C   0  0
   -1.5801   -1.1686   -4.3309 C   0  0  2  0  0  0
   -2.6575    1.0808   -2.5564 C   0  0
   -3.3094    0.7717   -4.0225 C   0  0
   -0.8646   -0.8635   -2.8483 C   0  0  2  0  0  0
   -1.0846    0.7294   -2.5297 C   0  0  2  0  0  0
   -0.4391    1.0050   -0.9256 C   0  0  1  0  0  0
    0.7415   -1.1273   -2.8642 C   0  0
    1.3579   -0.8398   -1.4289 C   0  0
    1.1595    0.6121   -0.8421 C   0  0  1  0  0  0
    0.3454    3.6527   -0.7026 C   0  0  1  0  0  0
   -0.5539    2.4694   -0.1646 C   0  0
    2.0616    1.8003   -1.5198 C   0  0
    1.8351    3.1756   -0.7010 C   0  0
   -5.8810   -2.7397   -8.7978 O   0  0
   -3.3769   -3.7708   -8.8664 C   0  0
   -4.1988   -3.6606   -5.8966 C   0  0
   -4.2410   -1.4714   -3.4163 C   0  0
   -1.4649   -1.8662   -1.7147 C   0  0
    1.6730    0.4350    0.6366 C   0  0
   -0.4166    1.5750   -3.7537 C   0  0
   -0.0968    4.2138   -1.9797 C   0  0
    0.2022    4.8375    0.2480 C   0  0
   -2.9321   -0.3147   -6.5513 H   0  0
   -1.0659   -0.5517   -5.0598 H   0  0
   -1.0106    0.3082   -0.3176 H   0  0
    0.7229    4.6524   -2.7939 O   0  0
   -1.4675    4.3339   -2.2090 O   0  0
  -10.0564    5.5070   -7.1688 O   0  0
   -8.8229    4.9318   -6.5844 C   0  0  2  0  0  0
   -8.6551    5.6901   -5.2609 C   0  0
   -7.5010    5.2552   -4.5436 O   0  0
   -6.3059    5.5718   -5.2592 C   0  0  1  0  0  0
   -5.1859    5.1828   -4.4562 N   0  0
   -6.2295    4.8002   -6.5966 C   0  0  2  0  0  0
   -4.9586    5.2447   -7.2162 O   0  0
   -7.5099    5.2193   -7.4491 C   0  0  1  0  0  0
   -7.5409    4.5917   -8.7795 O   0  0
   -3.9057    5.6192   -4.5757 C   0  0
   -3.2232    4.9401   -3.6851 C   0  0
   -4.1159    4.0928   -3.0100 N   0  0
   -5.2385    4.2537   -3.4768 N   0  0
   -1.7571    5.0117   -3.4367 C   0  0
   -7.6008    3.1719   -8.8329 C   0  0
   -7.6279    2.4948  -10.1761 C   0  0
   -7.6295    2.4765   -7.8097 O   0  0
   -4.1774    4.4473   -8.1147 C   0  0
   -4.3861    2.9827   -8.3721 C   0  0
   -3.1739    4.9711   -8.6099 O   0  0
  -10.9075    4.8123   -8.0924 C   0  0
  -10.8170    3.3459   -8.4197 C   0  0
  -11.8700    5.4351   -8.5534 O   0  0
   -5.2877    0.4723   -5.9504 H   0  0
   -5.7763   -1.2361   -5.7367 H   0  0
   -6.4256   -0.3925   -8.0130 H   0  0
   -4.6888    0.0533   -8.2675 H   0  0
   -2.9869   -1.6489   -8.4849 H   0  0
   -1.2415   -2.0393   -6.8526 H   0  0
   -1.6017   -3.7849   -6.6791 H   0  0
   -1.9141   -3.3604   -4.1481 H   0  0
   -0.3024   -2.8966   -4.7705 H   0  0
   -2.7734    2.1499   -2.3414 H   0  0
   -3.1761    0.5035   -1.7847 H   0  0
   -4.3629    1.0768   -4.0571 H   0  0
   -2.7649    1.3536   -4.7585 H   0  0
    1.2300   -0.4983   -3.6094 H   0  0
    0.9297   -2.1789   -3.1127 H   0  0
    0.8626   -1.5155   -0.7465 H   0  0
    2.4298   -1.0758   -1.4135 H   0  0
   -0.2010    2.2975    0.8527 H   0  0
   -1.6032    2.7903   -0.1211 H   0  0
    1.8223    1.9493   -2.5417 H   0  0
    3.1201    1.5196   -1.4472 H   0  0
    2.1171    2.9809    0.3305 H   0  0
    2.4717    3.9826   -1.0868 H   0  0
   -2.3256   -4.0699   -8.7623 H   0  0
   -3.6030   -3.6097   -9.9291 H   0  0
   -4.0231   -4.5690   -8.4814 H   0  0
   -4.0057   -3.7518   -4.8446 H   0  0
   -3.9309   -4.6131   -6.3635 H   0  0
   -5.2680   -3.4733   -6.0511 H   0  0
   -5.2478   -1.0846   -3.6038 H   0  0
   -4.0094   -1.2677   -2.3935 H   0  0
   -4.2414   -2.5250   -3.5471 H   0  0
   -1.2588   -2.9033   -2.0035 H   0  0
   -2.4948   -1.7442   -1.5908 H   0  0
   -1.0195   -1.6875   -0.7426 H   0  0
    1.5678    1.3460    1.2245 H   0  0
    2.7316    0.1444    0.6128 H   0  0
    1.0881   -0.3608    1.1176 H   0  0
   -0.5670    2.5828   -3.6118 H   0  0
   -0.8465    1.3289   -4.7127 H   0  0
    0.6396    1.3847   -3.8271 H   0  0
    0.8391    5.6622   -0.1004 H   0  0
    0.5120    4.5327    1.2571 H   0  0
   -0.8469    5.1639    0.2664 H   0  0
   -8.9433    3.8645   -6.3589 H   0  0
   -8.5647    6.7667   -5.4629 H   0  0
   -9.5461    5.5092   -4.6441 H   0  0
   -6.2652    6.6480   -5.4761 H   0  0
   -6.2231    3.7263   -6.3727 H   0  0
   -7.4551    6.3070   -7.5903 H   0  0
   -3.5325    6.3355   -5.2626 H   0  0
   -1.2533    4.4981   -4.2668 H   0  0
   -1.4106    6.0539   -3.4393 H   0  0
   -7.6459    1.4014  -10.0630 H   0  0
   -6.7498    2.8183  -10.7537 H   0  0
   -8.5115    2.8457  -10.7294 H   0  0
   -4.8046    2.8710   -9.3797 H   0  0
   -5.0696    2.5316   -7.6418 H   0  0
   -3.4131    2.4717   -8.3789 H   0  0
  -11.8288    2.9190   -8.4615 H   0  0
  -10.1817    2.8072   -7.7060 H   0  0
  -10.3934    3.2498   -9.4268 H   0  0
  1  2  1  0
  2  3  1  0
  3  4  1  0
  4  5  1  0
  5  6  1  0
  1  6  1  0
  8  9  1  0
  9 10  1  0
  7 10  1  0
  5  8  1  0
  7  6  1  0
 11 12  1  0
 13 14  1  0
 11 14  1  0
 12  7  1  0
 16 17  1  0
 17 18  1  0
 15 18  1  0
 13 16  1  0
 15 14  1  0
 19 20  1  0
 21 22  1  0
 19 22  1  0
 20 15  1  0
 18 21  1  0
  3 23  2  0
 10 13  1  0
 19 30  1  0
 19 31  1  0
  4 24  1  0
  5 25  1  0
  6 32  1  0
 10 33  1  0
  7 26  1  0
 13 27  1  0
 14 29  1  0
 18 28  1  0
 15 34  1  0
 30 36  1  0
 30 35  2  0
 38 37  1  0
 38 39  1  0
 39 40  1  0
 40 41  1  0
 41 42  1  0
 41 43  1  0
 43 44  1  0
 43 45  1  0
 38 45  1  0
 45 46  1  0
 48 49  1  0
 50 42  1  0
 47 42  1  0
 49 50  2  0
 48 51  1  0
 47 48  2  0
 51 36  1  0
 59 58  1  0
 58 37  1  0
 58 60  2  0
 56 55  1  0
 55 44  1  0
 55 57  2  0
 53 52  1  0
 52 46  1  0
 52 54  2  0
  1 61  1  0
  1 62  1  0
  2 63  1  0
  2 64  1  0
  4 65  1  0
  8 66  1  0
  8 67  1  0
  9 68  1  0
  9 69  1  0
 11 70  1  0
 11 71  1  0
 12 72  1  0
 12 73  1  0
 16 74  1  0
 16 75  1  0
 17 76  1  0
 17 77  1  0
 20 78  1  0
 20 79  1  0
 21 80  1  0
 21 81  1  0
 22 82  1  0
 22 83  1  0
 24 84  1  0
 24 85  1  0
 24 86  1  0
 25 87  1  0
 25 88  1  0
 25 89  1  0
 26 90  1  0
 26 91  1  0
 26 92  1  0
 27 93  1  0
 27 94  1  0
 27 95  1  0
 28 96  1  0
 28 97  1  0
 28 98  1  0
 29 99  1  0
 29100  1  0
 29101  1  0
 31102  1  0
 31103  1  0
 31104  1  0
 38105  1  0
 39106  1  0
 39107  1  0
 41108  1  0
 43109  1  0
 45110  1  0
 47111  1  0
 51112  1  0
 51113  1  0
 53114  1  0
 53115  1  0
 53116  1  0
 56117  1  0
 56118  1  0
 56119  1  0
 59120  1  0
 59121  1  0
 59122  1  0
M  END
> <Name>
RCGP2021_S5d

> <Clean Energy>
194.377

$$$$
RCGP2021_S5e
  SciTegic12132405553D

167174  0  0  0  0            999 V2000
   -4.8572    2.3626    3.4164 C   0  0
   -5.0800    3.8268    3.8497 C   0  0
   -6.1321    3.8465    4.8941 C   0  0
   -7.4737    3.3503    4.5004 C   0  0  1  0  0  0
   -7.3181    1.8134    4.1540 C   0  0  2  0  0  0
   -6.2281    1.7287    2.9417 C   0  0  2  0  0  0
   -6.0299    0.2365    2.3127 C   0  0  1  0  0  0
   -8.6500    1.2602    3.5911 C   0  0
   -8.5654   -0.2073    3.0278 C   0  0
   -7.5635   -0.2075    1.8100 C   0  0  2  0  0  0
   -5.1167   -1.0896    0.2069 C   0  0
   -5.1206    0.3082    1.0429 C   0  0
   -7.6058   -1.6395    0.9375 C   0  0  2  0  0  0
   -6.5874   -1.4511   -0.3298 C   0  0  2  0  0  0
   -6.5406   -2.9818   -1.1718 C   0  0  1  0  0  0
   -9.0774   -1.9529    0.3166 C   0  0
   -9.0493   -3.3243   -0.4925 C   0  0
   -8.0335   -3.4240   -1.7017 C   0  0  1  0  0  0
   -5.8850   -2.5358   -3.8333 C   0  0  1  0  0  0
   -5.5360   -3.2491   -2.4637 C   0  0
   -8.4212   -2.5798   -3.0545 C   0  0
   -7.3510   -2.9135   -4.2217 C   0  0
   -5.9248    4.3315    6.0113 O   0  0
   -8.5237    3.6982    5.5961 C   0  0
   -6.9612    1.0382    5.5015 C   0  0
   -5.2273   -0.7380    3.3120 C   0  0
   -7.2549   -2.9013    1.8995 C   0  0
   -8.1221   -4.9498   -2.0788 C   0  0
   -7.0985   -0.1559   -1.1794 C   0  0
   -5.6245   -1.1015   -3.8503 C   0  0
   -4.9349   -3.0542   -4.9095 C   0  0
   -6.6379    2.3388    2.1260 H   0  0
   -7.9074    0.5728    1.1430 H   0  0
   -6.2178   -3.6694   -0.3941 H   0  0
   -6.3180   -0.3423   -4.5357 O   0  0
   -4.5203   -0.6251   -3.1545 O   0  0
    2.5932    1.6698    0.3577 O   0  0
    2.3003    2.9958    0.7790 C   0  0
    1.3530    3.6282   -0.2471 C   0  0  1  0  0  0
    0.2170    2.7879   -0.3372 O   0  0
   -0.7216    3.2917   -1.2967 C   0  0  1  0  0  0
   -1.7359    2.3447   -1.4987 N   0  0
   -1.3329    4.6034   -0.7939 C   0  0  2  0  0  0
   -2.3428    5.0276   -1.7519 O   0  0
   -0.1262    5.6062   -0.7213 C   0  0  1  0  0  0
   -0.5285    6.9645   -0.3061 O   0  0
    0.9611    5.0607    0.2110 C   0  0  2  0  0  0
    2.1695    5.9683    0.2655 O   0  0
    3.1905    8.8963   -1.5859 C   0  0  2  0  0  0
    2.0949    7.8829   -2.1239 C   0  0  2  0  0  0
    2.6441    6.5482   -2.1943 O   0  0
    3.1505    6.0339   -0.9043 C   0  0  1  0  0  0
    4.3206    6.9424   -0.4585 C   0  0  1  0  0  0
    3.7758    8.3702   -0.2623 C   0  0  1  0  0  0
    4.8859    6.4900    0.7979 O   0  0
    4.8594    9.2878    0.1774 O   0  0
    2.7004   10.2490   -1.2414 O   0  0
    1.6690    8.2608   -3.5882 C   0  0
    0.8230    7.3021   -4.2480 O   0  0
   -2.5492    2.3178   -2.5738 C   0  0
   -3.2647    1.2378   -2.4414 C   0  0
   -2.8583    0.5979   -1.2581 N   0  0
   -1.9711    1.2643   -0.7339 N   0  0
   -4.3251    0.7715   -3.3620 C   0  0
   -0.4664    7.1838   -3.7986 C   0  0
   -1.3399    6.1641   -4.4680 C   0  0
   -0.9022    7.8879   -2.8806 O   0  0
    3.3704    1.0294    1.3086 C   0  0
    3.7464   -0.4052    1.1054 C   0  0
    3.7143    1.6216    2.3382 O   0  0
    2.3559   11.1946   -2.2120 C   0  0
    1.7789   12.4972   -1.7426 C   0  0
    2.5365   10.9995   -3.4168 O   0  0
   -3.3020    5.9217   -1.2472 C   0  0
   -4.3779    6.4388   -2.1460 C   0  0
   -3.3413    6.2035   -0.0500 O   0  0
    6.0022    9.4337   -0.7223 C   0  0
    7.1160   10.3681   -0.3724 C   0  0
    6.0934    8.8200   -1.7937 O   0  0
   -1.0515    7.1516    1.0075 C   0  0
   -1.5337    8.5166    1.3967 C   0  0
   -1.2018    6.2150    1.8014 O   0  0
    5.5372    5.2429    0.7314 C   0  0
    6.1218    4.6594    1.9813 C   0  0
    5.6510    4.6279   -0.3355 O   0  0
   -4.1263    2.3576    2.5991 H   0  0
   -4.4610    1.7861    4.2606 H   0  0
   -4.1453    4.2789    4.2085 H   0  0
   -5.4588    4.3522    2.9616 H   0  0
   -7.7521    3.8290    3.5512 H   0  0
   -8.9476    1.8904    2.7423 H   0  0
   -9.4163    1.3185    4.3733 H   0  0
   -8.2574   -0.9280    3.7958 H   0  0
   -9.5647   -0.4688    2.6632 H   0  0
   -4.4591   -0.9738   -0.6596 H   0  0
   -4.7406   -1.9047    0.8329 H   0  0
   -4.1029    0.5889    1.3432 H   0  0
   -5.5044    1.0832    0.3894 H   0  0
   -9.4019   -1.1452   -0.3396 H   0  0
   -9.7984   -2.0512    1.1372 H   0  0
   -8.7571   -4.0866    0.2152 H   0  0
  -10.0515   -3.5761   -0.8616 H   0  0
   -5.6186   -4.3141   -2.6818 H   0  0
   -4.4968   -3.0291   -2.1842 H   0  0
   -8.4431   -1.5343   -2.8801 H   0  0
   -9.4161   -2.8971   -3.3910 H   0  0
   -7.3821   -3.9875   -4.3848 H   0  0
   -7.6137   -2.4127   -5.1630 H   0  0
   -9.5169    3.3456    5.2885 H   0  0
   -8.5523    4.7884    5.7281 H   0  0
   -8.2488    3.2302    6.5489 H   0  0
   -6.8743   -0.0169    5.3253 H   0  0
   -7.7610    1.1850    6.2335 H   0  0
   -6.0188    1.4119    5.9199 H   0  0
   -4.2525   -0.2956    3.5431 H   0  0
   -5.0442   -1.6891    2.8627 H   0  0
   -5.7612   -0.9004    4.2166 H   0  0
   -7.9944   -2.9565    2.7065 H   0  0
   -6.2997   -2.8212    2.3158 H   0  0
   -7.2708   -3.8388    1.3553 H   0  0
   -7.4374   -5.2188   -2.8825 H   0  0
   -9.1489   -5.1793   -2.3916 H   0  0
   -7.8699   -5.5451   -1.1912 H   0  0
   -6.4672    0.0219   -1.9626 H   0  0
   -7.1226    0.7480   -0.5903 H   0  0
   -8.0926   -0.3067   -1.5602 H   0  0
   -5.1816   -2.5814   -5.8705 H   0  0
   -5.0425   -4.1436   -4.9956 H   0  0
   -3.9008   -2.8057   -4.6313 H   0  0
    1.7901    2.9577    1.7519 H   0  0
    3.2206    3.5847    0.8700 H   0  0
    1.8193    3.6633   -1.2391 H   0  0
   -0.2414    3.4852   -2.2666 H   0  0
   -1.8096    4.4325    0.1812 H   0  0
    0.2917    5.6688   -1.7256 H   0  0
    0.5212    4.9936    1.2098 H   0  0
    4.0020    8.9350   -2.3127 H   0  0
    1.2521    7.8531   -1.4407 H   0  0
    3.5478    5.0299   -1.0710 H   0  0
    5.0953    6.9493   -1.2309 H   0  0
    2.9872    8.3400    0.5009 H   0  0
    2.5973    8.2891   -4.1751 H   0  0
    1.2003    9.2451   -3.6129 H   0  0
   -2.5996    3.0310   -3.3585 H   0  0
   -5.2492    1.3003   -3.0932 H   0  0
   -4.0860    1.0229   -4.4043 H   0  0
   -2.3975    6.3682   -4.2762 H   0  0
   -1.0856    5.1757   -4.0472 H   0  0
   -1.1122    6.1242   -5.5426 H   0  0
    4.1785   -0.8304    2.0222 H   0  0
    4.4744   -0.4610    0.2852 H   0  0
    2.8581   -0.9677    0.7768 H   0  0
    2.3762   13.3248   -2.1438 H   0  0
    1.7422   12.5296   -0.6410 H   0  0
    0.7679   12.6057   -2.1627 H   0  0
   -5.2920    6.6414   -1.5690 H   0  0
   -4.5526    5.7350   -2.9723 H   0  0
   -4.0290    7.3885   -2.5770 H   0  0
    7.8941   10.3501   -1.1548 H   0  0
    7.5320   10.0824    0.6010 H   0  0
    6.7056   11.3801   -0.2573 H   0  0
   -0.9541    8.8674    2.2598 H   0  0
   -2.5803    8.4381    1.7335 H   0  0
   -1.4415    9.2180    0.5542 H   0  0
    6.9612    3.9930    1.7371 H   0  0
    5.3397    4.0587    2.4711 H   0  0
    6.4141    5.4620    2.6743 H   0  0
  1  2  1  0
  2  3  1  0
  3  4  1  0
  4  5  1  0
  5  6  1  0
  1  6  1  0
  8  9  1  0
  9 10  1  0
  7 10  1  0
  5  8  1  0
  7  6  1  0
 11 12  1  0
 13 14  1  0
 11 14  1  0
 12  7  1  0
 16 17  1  0
 17 18  1  0
 15 18  1  0
 13 16  1  0
 15 14  1  0
 19 20  1  0
 21 22  1  0
 19 22  1  0
 20 15  1  0
 18 21  1  0
  3 23  2  0
 10 13  1  0
 19 30  1  0
 19 31  1  0
  4 24  1  0
  5 25  1  0
  6 32  1  0
 10 33  1  0
  7 26  1  0
 13 27  1  0
 14 29  1  0
 18 28  1  0
 15 34  1  0
 30 36  1  0
 30 35  2  0
 37 38  1  0
 39 38  1  0
 39 40  1  0
 41 40  1  0
 41 42  1  0
 43 41  1  0
 43 44  1  0
 43 45  1  0
 45 46  1  0
 45 47  1  0
 47 39  1  0
 47 48  1  0
 49 50  1  0
 50 51  1  0
 52 51  1  0
 53 52  1  0
 54 53  1  0
 54 49  1  0
 52 48  1  0
 58 59  1  0
 53 55  1  0
 54 56  1  0
 49 57  1  0
 50 58  1  0
 61 62  1  0
 63 42  1  0
 60 42  1  0
 62 63  2  0
 60 61  2  0
 61 64  1  0
 64 36  1  0
 69 68  1  0
 68 37  1  0
 68 70  2  0
 75 74  1  0
 74 44  1  0
 74 76  2  0
 81 80  1  0
 80 46  1  0
 80 82  2  0
 84 83  1  0
 83 55  1  0
 83 85  2  0
 78 77  1  0
 77 56  1  0
 77 79  2  0
 72 71  1  0
 71 57  1  0
 71 73  2  0
 66 65  1  0
 65 59  1  0
 65 67  2  0
  1 86  1  0
  1 87  1  0
  2 88  1  0
  2 89  1  0
  4 90  1  0
  8 91  1  0
  8 92  1  0
  9 93  1  0
  9 94  1  0
 11 95  1  0
 11 96  1  0
 12 97  1  0
 12 98  1  0
 16 99  1  0
 16100  1  0
 17101  1  0
 17102  1  0
 20103  1  0
 20104  1  0
 21105  1  0
 21106  1  0
 22107  1  0
 22108  1  0
 24109  1  0
 24110  1  0
 24111  1  0
 25112  1  0
 25113  1  0
 25114  1  0
 26115  1  0
 26116  1  0
 26117  1  0
 27118  1  0
 27119  1  0
 27120  1  0
 28121  1  0
 28122  1  0
 28123  1  0
 29124  1  0
 29125  1  0
 29126  1  0
 31127  1  0
 31128  1  0
 31129  1  0
 38130  1  0
 38131  1  0
 39132  1  0
 41133  1  0
 43134  1  0
 45135  1  0
 47136  1  0
 49137  1  0
 50138  1  0
 52139  1  0
 53140  1  0
 54141  1  0
 58142  1  0
 58143  1  0
 60144  1  0
 64145  1  0
 64146  1  0
 66147  1  0
 66148  1  0
 66149  1  0
 69150  1  0
 69151  1  0
 69152  1  0
 72153  1  0
 72154  1  0
 72155  1  0
 75156  1  0
 75157  1  0
 75158  1  0
 78159  1  0
 78160  1  0
 78161  1  0
 81162  1  0
 81163  1  0
 81164  1  0
 84165  1  0
 84166  1  0
 84167  1  0
M  END
> <Name>
RCGP2021_S5e

> <Clean Energy>
237.063

$$$$
RCGP2021_S6a
  SciTegic12132405553D

132138  0  0  0  0            999 V2000
   -5.7812    5.4718  -13.5651 C   0  0
   -5.4825    6.6304  -14.5390 C   0  0
   -5.1462    6.0511  -15.8607 C   0  0
   -3.9502    5.1769  -15.9216 C   0  0  1  0  0  0
   -4.2557    3.9097  -15.0241 C   0  0  2  0  0  0
   -4.5520    4.4773  -13.5220 C   0  0  2  0  0  0
   -4.7356    3.3234  -12.3842 C   0  0  1  0  0  0
   -2.9957    3.0195  -14.9216 C   0  0
   -3.1155    1.8317  -13.8994 C   0  0
   -3.3148    2.4434  -12.4595 C   0  0  2  0  0  0
   -4.7035    2.8775   -9.7636 C   0  0
   -4.8143    3.9794  -10.9615 C   0  0
   -3.1567    1.2989  -11.2478 C   0  0  2  0  0  0
   -3.2921    2.0957   -9.8214 C   0  0  2  0  0  0
   -3.2240    0.8774   -8.5622 C   0  0  1  0  0  0
   -1.6953    0.5854  -11.2589 C   0  0
   -1.6054   -0.4992  -10.1031 C   0  0
   -1.8212    0.0134   -8.6293 C   0  0  1  0  0  0
   -2.2196    2.0271   -6.2367 C   0  0  1  0  0  0
   -3.4073    1.2495   -6.9546 C   0  0
   -0.5938    0.8813   -7.9893 C   0  0
   -0.9090    1.1946   -6.4392 C   0  0
   -5.7824    6.3476  -16.8774 O   0  0
   -3.5647    4.8865  -17.4016 C   0  0
   -5.4222    3.0777  -15.7241 C   0  0
   -6.1364    2.5455  -12.5335 C   0  0
   -4.2353    0.0994  -11.4510 C   0  0
   -1.8965   -1.3383   -7.8227 C   0  0
   -2.1483    3.2492   -9.7904 C   0  0
   -2.1257    3.4522   -6.6287 C   0  0
   -2.5188    2.1102   -4.7428 C   0  0
   -3.6525    5.0359  -13.2298 H   0  0
   -2.5057    3.1506  -12.3257 H   0  0
   -4.0554    0.2247   -8.8213 H   0  0
   -3.1767    4.0474   -6.8925 O   0  0
   -0.9777    4.1432   -6.6811 N   0  0
    6.6199    5.7820   -5.9953 O   0  0
    6.7706    7.1053   -6.5039 C   0  0
    5.8002    7.2884   -7.6729 C   0  0  1  0  0  0
    4.4698    7.0909   -7.1850 O   0  0
    3.4655    7.2024   -8.2055 C   0  0  1  0  0  0
    2.2192    6.9321   -7.5470 N   0  0
    3.5231    8.6680   -8.8345 C   0  0  2  0  0  0
    2.5511    8.8523   -9.9095 O   0  0
    4.9628    8.8761   -9.4235 C   0  0  1  0  0  0
    5.1560   10.2321   -9.9516 O   0  0
    5.9498    8.7081   -8.2587 C   0  0  2  0  0  0
    7.3257    8.9707   -8.7073 O   0  0
    1.2030    6.1378   -7.9899 C   0  0
    0.2969    6.1741   -7.0338 C   0  0
    0.7919    6.9798   -5.9964 N   0  0
    1.9005    7.3963   -6.3165 N   0  0
   -1.0487    5.5290   -7.0514 C   0  0
    7.8800    8.1649   -9.7425 C   0  0
    9.2766    8.4584  -10.1949 C   0  0
    7.2565    7.2398  -10.2769 O   0  0
    4.6929   10.5660  -11.2774 C   0  0
    4.1774    9.5524  -12.2925 C   0  0
    4.8306   11.7345  -11.6551 O   0  0
    1.1714    9.1733   -9.6479 C   0  0
    0.5991    9.5464   -8.2883 C   0  0
    0.4163    9.2548  -10.6225 O   0  0
    7.5016    5.5705   -4.9456 C   0  0
    7.5347    4.2366   -4.2646 C   0  0
    8.2648    6.4717   -4.5797 O   0  0
   -5.9655    5.9000  -12.5734 H   0  0
   -6.6753    4.9324  -13.8989 H   0  0
   -6.3350    7.3198  -14.6047 H   0  0
   -4.5917    7.1379  -14.1428 H   0  0
   -3.1217    5.6914  -15.4145 H   0  0
   -2.1668    3.6436  -14.5608 H   0  0
   -2.7523    2.6337  -15.9187 H   0  0
   -3.9317    1.1446  -14.1560 H   0  0
   -2.1635    1.2911  -13.9261 H   0  0
   -4.7682    3.4018   -8.8005 H   0  0
   -5.5261    2.1578   -9.8355 H   0  0
   -5.7438    4.5562  -10.8815 H   0  0
   -3.9824    4.6656  -10.8578 H   0  0
   -0.9021    1.3246  -11.1354 H   0  0
   -1.5549    0.0737  -12.2187 H   0  0
   -2.3894   -1.2166  -10.2973 H   0  0
   -0.6468   -1.0321  -10.1457 H   0  0
   -3.4608    0.2912   -6.4369 H   0  0
   -4.3528    1.7849   -6.7965 H   0  0
   -0.4322    1.7909   -8.5130 H   0  0
    0.3222    0.2795   -8.0437 H   0  0
   -1.0425    0.2391   -5.9379 H   0  0
   -0.0733    1.7211   -5.9614 H   0  0
   -2.6668    4.2555  -17.4381 H   0  0
   -3.3575    5.8388  -17.9087 H   0  0
   -4.3888    4.3793  -17.9170 H   0  0
   -5.6462    2.1880  -15.1666 H   0  0
   -5.1038    2.7686  -16.7244 H   0  0
   -6.3295    3.6874  -15.8086 H   0  0
   -6.9585    3.2660  -12.4709 H   0  0
   -6.2735    1.8399  -11.7440 H   0  0
   -6.1992    2.0219  -13.4569 H   0  0
   -4.0607   -0.3825  -12.4202 H   0  0
   -5.2194    0.4490  -11.4149 H   0  0
   -4.1521   -0.6526  -10.6743 H   0  0
   -2.0890   -1.1790   -6.7622 H   0  0
   -0.9450   -1.8741   -7.9372 H   0  0
   -2.7101   -1.9489   -8.2376 H   0  0
   -2.2402    3.8065   -8.9317 H   0  0
   -2.2286    3.9426  -10.6114 H   0  0
   -1.1619    2.8238   -9.8383 H   0  0
   -1.6938    2.6286   -4.2351 H   0  0
   -2.6227    1.0945   -4.3362 H   0  0
   -3.4541    2.6663   -4.5896 H   0  0
   -0.1047    3.7301   -6.4650 H   0  0
    6.5457    7.8382   -5.7169 H   0  0
    7.8010    7.2484   -6.8580 H   0  0
    6.0237    6.5435   -8.4468 H   0  0
    3.6416    6.4644   -9.0002 H   0  0
    3.3746    9.4286   -8.0584 H   0  0
    5.1920    8.1336  -10.1928 H   0  0
    5.7106    9.4431   -7.4777 H   0  0
    1.1394    5.6312   -8.9192 H   0  0
   -1.7280    6.0305   -6.3488 H   0  0
   -1.4607    5.5609   -8.0674 H   0  0
    9.7561    7.5447  -10.5714 H   0  0
    9.8496    8.9247   -9.3791 H   0  0
    9.2195    9.1785  -11.0244 H   0  0
    4.1700    9.9913  -13.3003 H   0  0
    3.1577    9.2652  -12.0187 H   0  0
    4.7909    8.6397  -12.2549 H   0  0
   -0.2492    8.8801   -8.0745 H   0  0
    0.1804   10.5596   -8.3539 H   0  0
    1.3430    9.4893   -7.4884 H   0  0
    8.1983    4.2592   -3.3887 H   0  0
    7.8855    3.4861   -4.9887 H   0  0
    6.5107    3.9470   -3.9877 H   0  0
  1  2  1  0
  2  3  1  0
  3  4  1  0
  4  5  1  0
  5  6  1  0
  1  6  1  0
  8  9  1  0
  9 10  1  0
  7 10  1  0
  5  8  1  0
  7  6  1  0
 11 12  1  0
 13 14  1  0
 11 14  1  0
 12  7  1  0
 16 17  1  0
 17 18  1  0
 15 18  1  0
 13 16  1  0
 15 14  1  0
 19 20  1  0
 21 22  1  0
 19 22  1  0
 20 15  1  0
 18 21  1  0
  3 23  2  0
 10 13  1  0
 19 30  1  0
 19 31  1  0
  4 24  1  0
  5 25  1  0
  6 32  1  0
 10 33  1  0
  7 26  1  0
 13 27  1  0
 14 29  1  0
 18 28  1  0
 15 34  1  0
 30 36  1  0
 30 35  2  0
 37 38  1  0
 39 38  1  0
 39 40  1  0
 40 41  1  0
 41 42  1  0
 41 43  1  0
 43 44  1  0
 43 45  1  0
 45 46  1  0
 45 47  1  0
 39 47  1  0
 47 48  1  0
 50 51  1  0
 52 42  1  0
 49 42  1  0
 51 52  2  0
 49 50  2  0
 50 53  1  0
 53 36  1  0
 64 63  1  0
 63 37  1  0
 63 65  2  0
 61 60  1  0
 60 44  1  0
 60 62  2  0
 58 57  1  0
 57 46  1  0
 57 59  2  0
 55 54  1  0
 54 48  1  0
 54 56  2  0
  1 66  1  0
  1 67  1  0
  2 68  1  0
  2 69  1  0
  4 70  1  0
  8 71  1  0
  8 72  1  0
  9 73  1  0
  9 74  1  0
 11 75  1  0
 11 76  1  0
 12 77  1  0
 12 78  1  0
 16 79  1  0
 16 80  1  0
 17 81  1  0
 17 82  1  0
 20 83  1  0
 20 84  1  0
 21 85  1  0
 21 86  1  0
 22 87  1  0
 22 88  1  0
 24 89  1  0
 24 90  1  0
 24 91  1  0
 25 92  1  0
 25 93  1  0
 25 94  1  0
 26 95  1  0
 26 96  1  0
 26 97  1  0
 27 98  1  0
 27 99  1  0
 27100  1  0
 28101  1  0
 28102  1  0
 28103  1  0
 29104  1  0
 29105  1  0
 29106  1  0
 31107  1  0
 31108  1  0
 31109  1  0
 36110  1  0
 38111  1  0
 38112  1  0
 39113  1  0
 41114  1  0
 43115  1  0
 45116  1  0
 47117  1  0
 49118  1  0
 53119  1  0
 53120  1  0
 55121  1  0
 55122  1  0
 55123  1  0
 58124  1  0
 58125  1  0
 58126  1  0
 61127  1  0
 61128  1  0
 61129  1  0
 64130  1  0
 64131  1  0
 64132  1  0
M  END
> <Name>
RCGP2021_S6a

> <Clean Energy>
204.402

$$$$
RCGP2021_S6b
  SciTegic12132405553D

132138  0  0  0  0            999 V2000
  -10.0769    1.3827   -4.5479 C   0  0
   -9.4660    2.5036   -5.4165 C   0  0
   -9.2714    1.9739   -6.7876 C   0  0
   -8.3443    0.8265   -6.9345 C   0  0  1  0  0  0
   -8.9879   -0.3900   -6.1528 C   0  0  2  0  0  0
   -9.1549    0.0986   -4.5991 C   0  0  2  0  0  0
   -9.6668   -1.0670   -3.5720 C   0  0  1  0  0  0
   -8.0083   -1.5851   -6.1369 C   0  0
   -8.4621   -2.7851   -5.2314 C   0  0
   -8.5319   -2.2851   -3.7336 C   0  0  2  0  0  0
   -9.8396   -1.7743   -1.0108 C   0  0
   -9.6054   -0.5614   -2.0858 C   0  0
   -8.7279   -3.5491   -2.6555 C   0  0  2  0  0  0
   -8.6938   -2.9052   -1.1459 C   0  0  2  0  0  0
   -9.0115   -4.2325   -0.0415 C   0  0  1  0  0  0
   -7.5137   -4.6270   -2.7415 C   0  0
   -7.7660   -5.8163   -1.7246 C   0  0
   -7.8955   -5.4378   -0.2046 C   0  0  1  0  0  0
   -7.8290   -3.6967    2.4130 C   0  0  1  0  0  0
   -9.1520   -4.0174    1.5957 C   0  0
   -6.5075   -5.0241    0.5451 C   0  0
   -6.7909   -4.8274    2.1190 C   0  0
   -9.7993    2.5081   -7.7687 O   0  0
   -8.0235    0.5759   -8.4390 C   0  0
  -10.3179   -0.8200   -6.9240 C   0  0
  -11.2237   -1.4139   -3.7965 C   0  0
  -10.0843   -4.3809   -3.0012 C   0  0
   -8.3708   -6.8017    0.4258 C   0  0
   -7.2808   -2.1181   -0.9677 C   0  0
   -7.3221   -2.3305    2.2103 C   0  0
   -8.1533   -3.7111    3.9036 C   0  0
   -8.1462    0.3699   -4.2604 H   0  0
   -7.5662   -1.8384   -3.5211 H   0  0
   -9.9778   -4.5945   -0.3837 H   0  0
   -8.1422   -1.4346    1.9788 O   0  0
   -6.0304   -1.9985    2.3195 N   0  0
    2.4655   -1.2903    3.0534 O   0  0
    2.5380   -0.0966    2.2779 C   0  0
    1.4338   -0.0938    1.2121 C   0  0  1  0  0  0
    0.1403   -0.1369    1.8537 O   0  0
   -0.9442   -0.1642    0.9018 C   0  0  1  0  0  0
   -2.1703   -0.2157    1.6474 N   0  0
   -0.8758    1.1382   -0.0180 C   0  0  2  0  0  0
   -1.8864    1.1498   -1.0839 O   0  0
    0.4655    1.1561   -0.7189 C   0  0  1  0  0  0
    0.4820    2.3077   -1.5834 O   0  0
    1.5724    1.1886    0.3970 C   0  0  1  0  0  0
    1.3972    2.2879    1.3563 O   0  0
   -3.3560   -0.7540    1.2471 C   0  0
   -4.2197   -0.4076    2.1778 C   0  0
   -3.5278    0.3036    3.1706 N   0  0
   -2.3507    0.3955    2.8392 N   0  0
   -5.6906   -0.6310    2.1527 C   0  0
    1.6165    3.6029    0.9227 C   0  0
    1.3645    4.7239    1.8813 C   0  0
    2.0227    3.8571   -0.2104 O   0  0
    3.4933   -1.2873    3.9942 C   0  0
    3.6582   -2.4481    4.9266 C   0  0
    4.2802   -0.3352    4.0531 O   0  0
    1.5808    2.3114   -2.4649 C   0  0
    1.7372    3.4491   -3.4273 C   0  0
    2.4003    1.3854   -2.4708 O   0  0
   -3.1821    1.7331   -0.8576 C   0  0
   -3.5560    2.5478    0.3735 C   0  0
   -4.0105    1.6607   -1.7716 O   0  0
  -10.1618    1.7537   -3.5202 H   0  0
  -11.0746    1.1311   -4.9264 H   0  0
  -10.1068    3.3957   -5.4157 H   0  0
   -8.4805    2.7220   -4.9827 H   0  0
   -7.4196    1.0590   -6.3887 H   0  0
   -7.0526   -1.2375   -5.7220 H   0  0
   -7.8535   -1.9303   -7.1663 H   0  0
   -9.4241   -3.2013   -5.5551 H   0  0
   -7.6882   -3.5555   -5.3116 H   0  0
   -9.7943   -1.3577    0.0047 H   0  0
  -10.8234   -2.2281   -1.1676 H   0  0
  -10.3456    0.2365   -1.9471 H   0  0
   -8.6205   -0.1444   -1.9078 H   0  0
   -6.5556   -4.1497   -2.5277 H   0  0
   -7.4807   -5.0484   -3.7532 H   0  0
   -8.7052   -6.2651   -2.0100 H   0  0
   -6.9867   -6.5828   -1.8234 H   0  0
   -9.4894   -4.9769    1.9881 H   0  0
   -9.9189   -3.2621    1.8130 H   0  0
   -6.0828   -4.1366    0.1403 H   0  0
   -5.7888   -5.8438    0.4216 H   0  0
   -7.2010   -5.7609    2.4939 H   0  0
   -5.8648   -4.6141    2.6667 H   0  0
   -7.3223   -0.2633   -8.5381 H   0  0
   -7.5657    1.4807   -8.8613 H   0  0
   -8.9432    0.3501   -8.9924 H   0  0
  -10.7790   -1.6661   -6.4504 H   0  0
  -10.0714   -1.1114   -7.9495 H   0  0
  -11.0321    0.0115   -6.9489 H   0  0
  -11.8205   -0.5063   -3.6600 H   0  0
  -11.5684   -2.1287   -3.0818 H   0  0
  -11.4039   -1.8078   -4.7660 H   0  0
  -10.0119   -4.7846   -4.0177 H   0  0
  -10.9374   -3.7835   -2.9308 H   0  0
  -10.2366   -5.2065   -2.3157 H   0  0
   -8.5581   -6.7223    1.4960 H   0  0
   -7.5976   -7.5615    0.2529 H   0  0
   -9.3015   -7.1103   -0.0693 H   0  0
   -7.2496   -1.6531   -0.0415 H   0  0
   -7.1405   -1.3430   -1.7055 H   0  0
   -6.4453   -2.7908   -1.0582 H   0  0
   -7.2375   -3.5095    4.4765 H   0  0
   -8.5522   -4.6968    4.1792 H   0  0
   -8.9019   -2.9361    4.1200 H   0  0
   -5.3284   -2.6637    2.5267 H   0  0
    2.4204    0.7775    2.9337 H   0  0
    3.5162   -0.0505    1.7787 H   0  0
    1.5570   -0.9665    0.5559 H   0  0
   -0.8578   -1.0473    0.2535 H   0  0
   -0.9366    2.0533    0.5796 H   0  0
    0.5769    0.2580   -1.3413 H   0  0
    2.5720    1.2206   -0.0557 H   0  0
   -3.5572   -1.2675    0.3414 H   0  0
   -6.1866   -0.0431    2.9364 H   0  0
   -6.0817   -0.3421    1.1683 H   0  0
    1.8636    5.6434    1.5461 H   0  0
    1.6775    4.4263    2.8926 H   0  0
    0.2779    4.8985    1.9194 H   0  0
    3.3974   -2.1172    5.9418 H   0  0
    4.7177   -2.7442    4.9545 H   0  0
    3.0107   -3.2845    4.6271 H   0  0
    2.8030    3.6504   -3.6036 H   0  0
    1.2018    4.3371   -3.0586 H   0  0
    1.2932    3.1470   -4.3866 H   0  0
   -4.6494    2.5970    0.4752 H   0  0
   -3.1723    3.5668    0.2314 H   0  0
   -3.0830    2.1429    1.2747 H   0  0
  1  2  1  0
  2  3  1  0
  3  4  1  0
  4  5  1  0
  5  6  1  0
  1  6  1  0
  8  9  1  0
  9 10  1  0
  7 10  1  0
  5  8  1  0
  7  6  1  0
 11 12  1  0
 13 14  1  0
 11 14  1  0
 12  7  1  0
 16 17  1  0
 17 18  1  0
 15 18  1  0
 13 16  1  0
 15 14  1  0
 19 20  1  0
 21 22  1  0
 19 22  1  0
 20 15  1  0
 18 21  1  0
  3 23  2  0
 10 13  1  0
 19 30  1  0
 19 31  1  0
  4 24  1  0
  5 25  1  0
  6 32  1  0
 10 33  1  0
  7 26  1  0
 13 27  1  0
 14 29  1  0
 18 28  1  0
 15 34  1  0
 30 36  1  0
 30 35  2  0
 37 38  1  0
 39 38  1  0
 39 40  1  0
 41 40  1  0
 41 42  1  0
 43 41  1  0
 43 44  1  0
 43 45  1  0
 45 46  1  0
 45 47  1  0
 47 39  1  0
 47 48  1  0
 50 51  1  0
 52 42  1  0
 49 42  1  0
 51 52  2  0
 49 50  2  0
 50 53  1  0
 53 36  1  0
 58 57  1  0
 57 37  1  0
 57 59  2  0
 64 63  1  0
 63 44  1  0
 63 65  2  0
 61 60  1  0
 60 46  1  0
 60 62  2  0
 55 54  1  0
 54 48  1  0
 54 56  2  0
  1 66  1  0
  1 67  1  0
  2 68  1  0
  2 69  1  0
  4 70  1  0
  8 71  1  0
  8 72  1  0
  9 73  1  0
  9 74  1  0
 11 75  1  0
 11 76  1  0
 12 77  1  0
 12 78  1  0
 16 79  1  0
 16 80  1  0
 17 81  1  0
 17 82  1  0
 20 83  1  0
 20 84  1  0
 21 85  1  0
 21 86  1  0
 22 87  1  0
 22 88  1  0
 24 89  1  0
 24 90  1  0
 24 91  1  0
 25 92  1  0
 25 93  1  0
 25 94  1  0
 26 95  1  0
 26 96  1  0
 26 97  1  0
 27 98  1  0
 27 99  1  0
 27100  1  0
 28101  1  0
 28102  1  0
 28103  1  0
 29104  1  0
 29105  1  0
 29106  1  0
 31107  1  0
 31108  1  0
 31109  1  0
 36110  1  0
 38111  1  0
 38112  1  0
 39113  1  0
 41114  1  0
 43115  1  0
 45116  1  0
 47117  1  0
 49118  1  0
 53119  1  0
 53120  1  0
 55121  1  0
 55122  1  0
 55123  1  0
 58124  1  0
 58125  1  0
 58126  1  0
 61127  1  0
 61128  1  0
 61129  1  0
 64130  1  0
 64131  1  0
 64132  1  0
M  END
> <Name>
RCGP2021_S6b

> <Clean Energy>
199.972

$$$$
RCGP2021_S6c
  SciTegic12132405553D

126132  0  0  0  0            999 V2000
  -10.3253   -4.2941    1.5045 C   0  0
   -9.7544   -4.5002    2.9234 C   0  0
  -10.3895   -3.5128    3.8280 C   0  0
  -10.1555   -2.0812    3.5233 C   0  0  1  0  0  0
  -10.8253   -1.7904    2.1197 C   0  0  2  0  0  0
  -10.1055   -2.7958    1.0515 C   0  0  2  0  0  0
  -10.5349   -2.5542   -0.5045 C   0  0  1  0  0  0
  -10.4935   -0.3505    1.6664 C   0  0
  -10.9394   -0.0073    0.2008 C   0  0
  -10.1521   -0.9519   -0.7893 C   0  0  2  0  0  0
   -9.8307   -3.0219   -3.0245 C   0  0
   -9.6488   -3.4325   -1.4547 C   0  0
  -10.3178   -0.4837   -2.3856 C   0  0  2  0  0  0
   -9.3843   -1.4927   -3.2799 C   0  0  2  0  0  0
   -9.6532   -1.0541   -4.9590 C   0  0  1  0  0  0
   -9.7730    1.0256   -2.6441 C   0  0
   -9.9685    1.4275   -4.1655 C   0  0
   -9.2557    0.5216   -5.2403 C   0  0  1  0  0  0
   -7.4152   -1.7385   -6.4423 C   0  0  1  0  0  0
   -8.9735   -1.8895   -6.2200 C   0  0
   -7.6310    0.6761   -5.3503 C   0  0
   -7.0942   -0.2065   -6.5877 C   0  0
  -11.0146   -3.8656    4.8337 O   0  0
  -10.6360   -1.1881    4.7053 C   0  0
  -12.4057   -1.9316    2.2890 C   0  0
  -12.0347   -3.0579   -0.8019 C   0  0
  -11.8877   -0.4686   -2.8134 C   0  0
   -9.8622    1.0784   -6.5838 C   0  0
   -7.8548   -1.3810   -2.7187 C   0  0
   -6.6133   -2.4680   -5.4362 C   0  0
   -7.0250   -2.4334   -7.7427 C   0  0
   -9.0321   -2.5649    1.0985 H   0  0
   -9.1033   -0.8365   -0.5401 H   0  0
  -10.7290   -1.1737   -5.0669 H   0  0
   -7.0899   -3.4986   -4.9477 O   0  0
   -5.3858   -2.0991   -5.0632 N   0  0
   -0.5886    2.5141   -2.4085 C   0  0  1  0  0  0
   -1.3170    1.3339   -3.1446 C   0  0  1  0  0  0
   -1.3599    0.1347   -2.1792 C   0  0  2  0  0  0
   -0.0359   -0.2703   -1.8154 O   0  0
    0.6784    0.7623   -1.1335 C   0  0  2  0  0  0
    0.8583    1.9729   -2.0493 C   0  0  1  0  0  0
    2.0631    0.2311   -0.7445 C   0  0
    1.5983    1.4984   -3.2178 O   0  0
   -0.5655    3.6995   -3.2521 O   0  0
   -2.7108    1.6466   -3.4894 O   0  0
   -1.9829   -0.9399   -2.8752 N   0  0
   -3.3058   -1.2057   -2.9257 C   0  0
   -3.4219   -2.2403   -3.7247 C   0  0
   -2.1374   -2.6040   -4.1558 N   0  0
   -1.3265   -1.8342   -3.6494 N   0  0
   -4.6890   -2.9122   -4.1078 C   0  0
   -1.9423    0.4156   -1.2907 H   0  0
   -3.0186    2.4605   -4.6399 C   0  0
   -1.9999    2.9195   -5.6774 C   0  0
   -4.2079    2.7223   -4.8514 O   0  0
    2.0435    2.4594   -4.1331 C   0  0
    2.7556    2.0028   -5.3655 C   0  0
    1.8929    3.6648   -3.9331 O   0  0
   -0.2040    4.9781   -2.6639 C   0  0
    0.0814    5.2031   -1.1846 C   0  0
   -0.1688    5.9613   -3.4113 O   0  0
   -9.8078   -4.9815    0.8259 H   0  0
  -11.3977   -4.5222    1.5032 H   0  0
   -9.9193   -5.5294    3.2691 H   0  0
   -8.6812   -4.2719    2.8549 H   0  0
   -9.0784   -1.9362    3.3595 H   0  0
   -9.4014   -0.2325    1.6828 H   0  0
  -10.9456    0.3568    2.3720 H   0  0
  -12.0243   -0.1070    0.0652 H   0  0
  -10.6441    1.0300    0.0124 H   0  0
   -9.1904   -3.6743   -3.6329 H   0  0
  -10.8733   -3.1569   -3.3313 H   0  0
   -9.8875   -4.4907   -1.2939 H   0  0
   -8.6096   -3.2781   -1.1893 H   0  0
   -8.7194    1.1081   -2.3724 H   0  0
  -10.3518    1.7255   -2.0295 H   0  0
  -11.0293    1.3609   -4.3631 H   0  0
   -9.6619    2.4681   -4.3328 H   0  0
   -9.4243   -1.4749   -7.1218 H   0  0
   -9.2370   -2.9532   -6.1553 H   0  0
   -7.1401    0.3774   -4.4601 H   0  0
   -7.3924    1.7302   -5.5427 H   0  0
   -7.6005    0.1526   -7.4802 H   0  0
   -6.0134   -0.0775   -6.7286 H   0  0
  -10.4416   -0.1312    4.4801 H   0  0
  -10.0850   -1.4712    5.6124 H   0  0
  -11.7091   -1.3327    4.8797 H   0  0
  -12.9110   -1.7125    1.3680 H   0  0
  -12.7609   -1.2168    3.0374 H   0  0
  -12.6669   -2.9470    2.6101 H   0  0
  -12.1140   -4.1217   -0.5540 H   0  0
  -12.2802   -2.9545   -1.8364 H   0  0
  -12.7521   -2.5128   -0.2388 H   0  0
  -12.4293    0.2396   -2.1756 H   0  0
  -12.3259   -1.4138   -2.7245 H   0  0
  -12.0199   -0.1683   -3.8471 H   0  0
   -9.5093    0.5311   -7.4571 H   0  0
   -9.5848    2.1357   -6.6878 H   0  0
  -10.9565    0.9926   -6.5362 H   0  0
   -7.2432   -2.0406   -3.2234 H   0  0
   -7.7745   -1.6301   -1.6727 H   0  0
   -7.4706   -0.3826   -2.8296 H   0  0
   -5.9450   -2.3144   -7.9078 H   0  0
   -7.5783   -1.9799   -8.5769 H   0  0
   -7.2723   -3.5014   -7.6729 H   0  0
   -4.9485   -1.2932   -5.4371 H   0  0
   -1.1451    2.7553   -1.4940 H   0  0
   -0.7632    1.0391   -4.0451 H   0  0
    0.1314    1.0595   -0.2275 H   0  0
    1.4352    2.7346   -1.5167 H   0  0
    2.6216    1.0196   -0.2209 H   0  0
    2.6092   -0.0654   -1.6511 H   0  0
    1.9483   -0.6397   -0.0838 H   0  0
   -4.0863   -0.6830   -2.4326 H   0  0
   -4.4964   -3.8963   -4.5558 H   0  0
   -5.3492   -3.0073   -3.2356 H   0  0
   -2.5016    3.1287   -6.6323 H   0  0
   -1.1972    2.1773   -5.7919 H   0  0
   -1.5416    3.8502   -5.3188 H   0  0
    3.5567    2.7102   -5.6206 H   0  0
    2.0341    2.0110   -6.1961 H   0  0
    3.1321    0.9775   -5.2347 H   0  0
    0.1432    6.2779   -0.9629 H   0  0
    1.0362    4.7189   -0.9355 H   0  0
   -0.6920    4.7113   -0.5770 H   0  0
  1  2  1  0
  2  3  1  0
  3  4  1  0
  4  5  1  0
  5  6  1  0
  1  6  1  0
  8  9  1  0
  9 10  1  0
  7 10  1  0
  5  8  1  0
  7  6  1  0
 11 12  1  0
 13 14  1  0
 11 14  1  0
 12  7  1  0
 16 17  1  0
 17 18  1  0
 15 18  1  0
 13 16  1  0
 15 14  1  0
 19 20  1  0
 21 22  1  0
 19 22  1  0
 20 15  1  0
 18 21  1  0
  3 23  2  0
 10 13  1  0
 19 30  1  0
 19 31  1  0
  4 24  1  0
  5 25  1  0
  6 32  1  0
 10 33  1  0
  7 26  1  0
 13 27  1  0
 14 29  1  0
 18 28  1  0
 15 34  1  0
 30 36  1  0
 30 35  2  0
 37 38  1  0
 38 39  1  0
 39 40  1  0
 40 41  1  0
 41 42  1  0
 37 42  1  0
 39 47  1  0
 49 50  1  0
 51 47  1  0
 48 47  1  0
 49 52  1  0
 48 49  2  0
 50 51  2  0
 39 53  1  0
 41 43  1  0
 38 46  1  0
 52 36  1  0
 42 44  1  0
 37 45  1  0
 58 57  1  0
 57 44  1  0
 57 59  2  0
 61 60  1  0
 60 45  1  0
 60 62  2  0
 55 54  1  0
 54 46  1  0
 54 56  2  0
  1 63  1  0
  1 64  1  0
  2 65  1  0
  2 66  1  0
  4 67  1  0
  8 68  1  0
  8 69  1  0
  9 70  1  0
  9 71  1  0
 11 72  1  0
 11 73  1  0
 12 74  1  0
 12 75  1  0
 16 76  1  0
 16 77  1  0
 17 78  1  0
 17 79  1  0
 20 80  1  0
 20 81  1  0
 21 82  1  0
 21 83  1  0
 22 84  1  0
 22 85  1  0
 24 86  1  0
 24 87  1  0
 24 88  1  0
 25 89  1  0
 25 90  1  0
 25 91  1  0
 26 92  1  0
 26 93  1  0
 26 94  1  0
 27 95  1  0
 27 96  1  0
 27 97  1  0
 28 98  1  0
 28 99  1  0
 28100  1  0
 29101  1  0
 29102  1  0
 29103  1  0
 31104  1  0
 31105  1  0
 31106  1  0
 36107  1  0
 37108  1  0
 38109  1  0
 41110  1  0
 42111  1  0
 43112  1  0
 43113  1  0
 43114  1  0
 48115  1  0
 52116  1  0
 52117  1  0
 55118  1  0
 55119  1  0
 55120  1  0
 58121  1  0
 58122  1  0
 58123  1  0
 61124  1  0
 61125  1  0
 61126  1  0
M  END
> <Name>
RCGP2021_S6c

> <Clean Energy>
186.573

$$$$
RCGP2021_S6d
  SciTegic12132405553D

123129  0  0  0  0            999 V2000
  -10.0253   -0.5592   -6.6035 C   0  0
   -9.3302   -0.4229   -7.9745 C   0  0
   -9.2698   -1.7655   -8.5998 C   0  0
   -8.4963   -2.8039   -7.8782 C   0  0  1  0  0  0
   -9.2389   -3.0636   -6.5052 C   0  0  2  0  0  0
   -9.2664   -1.6290   -5.7206 C   0  0  2  0  0  0
   -9.8552   -1.6983   -4.1988 C   0  0  1  0  0  0
   -8.4084   -4.0305   -5.6307 C   0  0
   -8.9500   -4.2148   -4.1682 C   0  0
   -8.8790   -2.8188   -3.4318 C   0  0  2  0  0  0
   -9.9659   -0.4180   -1.8706 C   0  0
   -9.6568   -0.3215   -3.4720 C   0  0
   -9.1558   -2.9531   -1.7884 C   0  0  2  0  0  0
   -8.9643   -1.4546   -1.1455 C   0  0  2  0  0  0
   -9.3676   -1.5961    0.5547 C   0  0  1  0  0  0
   -8.0781   -3.9266   -1.0578 C   0  0
   -8.4029   -4.0374    0.4901 C   0  0
   -8.4030   -2.6970    1.3159 C   0  0  1  0  0  0
   -8.0084    0.3579    1.9819 C   0  0  1  0  0  0
   -9.3972   -0.2895    1.5737 C   0  0
   -6.9384   -2.0431    1.6179 C   0  0
   -7.1134   -0.7738    2.5966 C   0  0
   -9.7743   -1.9872   -9.7057 O   0  0
   -8.2851   -4.0528   -8.7851 C   0  0
  -10.6492   -3.7375   -6.8288 C   0  0
  -11.4512   -1.9157   -4.1842 C   0  0
  -10.6148   -3.6223   -1.5131 C   0  0
   -8.9883   -3.1732    2.6993 C   0  0
   -7.4581   -0.9421   -1.5117 C   0  0
   -7.3699    1.1394    0.8969 C   0  0
   -8.2474    1.4156    3.0543 C   0  0
   -8.2163   -1.3241   -5.6164 H   0  0
   -7.8585   -2.4708   -3.5485 H   0  0
  -10.3856   -1.9775    0.5242 H   0  0
   -8.0985    1.6871    0.0617 O   0  0
   -6.0474    1.3228    0.8122 N   0  0
    3.0606   -0.4768   -1.9598 O   0  0
    1.9463    0.3811   -1.5422 C   0  0  2  0  0  0
    1.0280   -0.5176   -0.6936 C   0  0
   -0.1011    0.2215   -0.1895 O   0  0
   -0.9560    0.6718   -1.2505 C   0  0  1  0  0  0
   -2.0625    1.3719   -0.6948 N   0  0
   -0.1740    1.6463   -2.1696 C   0  0  2  0  0  0
   -1.0412    2.2193   -3.2494 O   0  0
    1.0872    0.9254   -2.7439 C   0  0  1  0  0  0
    1.8119    1.8391   -3.6461 O   0  0
   -3.3577    1.1259   -0.9729 C   0  0
   -4.0409    1.9964   -0.2697 C   0  0
   -3.1245    2.7839    0.4515 N   0  0
   -1.9874    2.3991    0.1839 N   0  0
   -5.5267    2.1292   -0.2494 C   0  0
    2.2604    3.0954   -3.1143 C   0  0
    2.9820    4.0421   -4.0241 C   0  0
    2.1061    3.4100   -1.9281 O   0  0
    4.1670    0.1211   -2.5739 C   0  0
    5.2973   -0.7468   -3.0315 C   0  0
    4.2653    1.3400   -2.6917 O   0  0
   -1.7227    1.4676   -4.3145 C   0  0
   -1.6979   -0.0418   -4.5457 C   0  0
   -2.3937    2.1328   -5.1108 O   0  0
  -10.0122    0.4217   -6.1150 H   0  0
  -11.0642   -0.8775   -6.7499 H   0  0
   -9.8581    0.2972   -8.6140 H   0  0
   -8.3047   -0.0890   -7.7633 H   0  0
   -7.5233   -2.3761   -7.5989 H   0  0
   -7.3978   -3.6131   -5.5272 H   0  0
   -8.3499   -5.0029   -6.1345 H   0  0
   -9.9706   -4.6181   -4.1555 H   0  0
   -8.2765   -4.9160   -3.6645 H   0  0
   -9.8170    0.5743   -1.4242 H   0  0
  -11.0019   -0.7323   -1.7064 H   0  0
  -10.2928    0.4329   -3.9510 H   0  0
   -8.6233   -0.0183   -3.5933 H   0  0
   -7.0620   -3.5543   -1.1991 H   0  0
   -8.1500   -4.9307   -1.4929 H   0  0
   -9.4016   -4.4420    0.5621 H   0  0
   -7.7207   -4.7444    0.9796 H   0  0
   -9.8128   -0.6610    2.5109 H   0  0
  -10.0670    0.4846    1.1771 H   0  0
   -6.4418   -1.7450    0.7276 H   0  0
   -6.3212   -2.7940    2.1275 H   0  0
   -7.6019   -1.1285    3.5001 H   0  0
   -6.1410   -0.3497    2.8754 H   0  0
   -7.6955   -4.8092   -8.2505 H   0  0
   -7.7443   -3.7476   -9.6912 H   0  0
   -9.2523   -4.4814   -9.0743 H   0  0
  -11.1823   -3.9638   -5.9249 H   0  0
  -10.4933   -4.6794   -7.3633 H   0  0
  -11.2593   -3.0697   -7.4486 H   0  0
  -11.9326   -1.1008   -4.7346 H   0  0
  -11.8360   -1.8948   -3.1880 H   0  0
  -11.7264   -2.8437   -4.6219 H   0  0
  -10.6453   -4.6211   -1.9638 H   0  0
  -11.3902   -3.0451   -1.9083 H   0  0
  -10.8199   -3.7192   -0.4530 H   0  0
   -9.1050   -2.3524    3.4059 H   0  0
   -8.3136   -3.9243    3.1310 H   0  0
   -9.9736   -3.6267    2.5251 H   0  0
   -7.3160    0.0238   -1.1670 H   0  0
   -7.2746   -0.9176   -2.5748 H   0  0
   -6.7119   -1.5875   -1.0814 H   0  0
   -7.2844    1.8502    3.3564 H   0  0
   -8.7307    0.9482    3.9236 H   0  0
   -8.8973    2.2034    2.6497 H   0  0
   -5.4256    0.9244    1.4696 H   0  0
    2.3083    1.2075   -0.9155 H   0  0
    0.6684   -1.3595   -1.3023 H   0  0
    1.6079   -0.9027    0.1561 H   0  0
   -1.3119   -0.1852   -1.8204 H   0  0
    0.1571    2.4859   -1.5513 H   0  0
    0.7573    0.0671   -3.3254 H   0  0
   -3.7431    0.3865   -1.6286 H   0  0
   -5.8181    3.1679   -0.0423 H   0  0
   -5.9706    1.7750   -1.1902 H   0  0
    3.2749    4.9559   -3.4877 H   0  0
    2.3316    4.2780   -4.8787 H   0  0
    3.8638    3.5300   -4.4369 H   0  0
    6.1077   -0.1412   -3.4621 H   0  0
    4.9133   -1.4684   -3.7671 H   0  0
    5.6588   -1.3373   -2.1772 H   0  0
   -2.3084   -0.3084   -5.4197 H   0  0
   -2.0679   -0.5500   -3.6473 H   0  0
   -0.6607   -0.3680   -4.6863 H   0  0
  1  2  1  0
  2  3  1  0
  3  4  1  0
  4  5  1  0
  5  6  1  0
  1  6  1  0
  8  9  1  0
  9 10  1  0
  7 10  1  0
  5  8  1  0
  7  6  1  0
 11 12  1  0
 13 14  1  0
 11 14  1  0
 12  7  1  0
 16 17  1  0
 17 18  1  0
 15 18  1  0
 13 16  1  0
 15 14  1  0
 19 20  1  0
 21 22  1  0
 19 22  1  0
 20 15  1  0
 18 21  1  0
  3 23  2  0
 10 13  1  0
 19 30  1  0
 19 31  1  0
  4 24  1  0
  5 25  1  0
  6 32  1  0
 10 33  1  0
  7 26  1  0
 13 27  1  0
 14 29  1  0
 18 28  1  0
 15 34  1  0
 30 36  1  0
 30 35  2  0
 38 37  1  0
 38 39  1  0
 39 40  1  0
 41 40  1  0
 41 42  1  0
 43 41  1  0
 43 44  1  0
 43 45  1  0
 45 38  1  0
 45 46  1  0
 48 49  1  0
 50 42  1  0
 47 42  1  0
 49 50  2  0
 47 48  2  0
 48 51  1  0
 51 36  1  0
 56 55  1  0
 55 37  1  0
 55 57  2  0
 59 58  1  0
 58 44  1  0
 58 60  2  0
 53 52  1  0
 52 46  1  0
 52 54  2  0
  1 61  1  0
  1 62  1  0
  2 63  1  0
  2 64  1  0
  4 65  1  0
  8 66  1  0
  8 67  1  0
  9 68  1  0
  9 69  1  0
 11 70  1  0
 11 71  1  0
 12 72  1  0
 12 73  1  0
 16 74  1  0
 16 75  1  0
 17 76  1  0
 17 77  1  0
 20 78  1  0
 20 79  1  0
 21 80  1  0
 21 81  1  0
 22 82  1  0
 22 83  1  0
 24 84  1  0
 24 85  1  0
 24 86  1  0
 25 87  1  0
 25 88  1  0
 25 89  1  0
 26 90  1  0
 26 91  1  0
 26 92  1  0
 27 93  1  0
 27 94  1  0
 27 95  1  0
 28 96  1  0
 28 97  1  0
 28 98  1  0
 29 99  1  0
 29100  1  0
 29101  1  0
 31102  1  0
 31103  1  0
 31104  1  0
 36105  1  0
 38106  1  0
 39107  1  0
 39108  1  0
 41109  1  0
 43110  1  0
 45111  1  0
 47112  1  0
 51113  1  0
 51114  1  0
 53115  1  0
 53116  1  0
 53117  1  0
 56118  1  0
 56119  1  0
 56120  1  0
 59121  1  0
 59122  1  0
 59123  1  0
M  END
> <Name>
RCGP2021_S6d

> <Clean Energy>
190.655

$$$$
RCGP2021_S6e
  SciTegic12132405553D

168175  0  0  0  0            999 V2000
  -10.7364   -0.4821   -0.5121 C   0  0
  -10.9974    1.0273   -0.3219 C   0  0
  -10.5848    1.7295   -1.5607 C   0  0
   -9.1547    1.6323   -1.9384 C   0  0  1  0  0  0
   -8.8634    0.1099   -2.2572 C   0  0  2  0  0  0
   -9.2208   -0.7221   -0.8938 C   0  0  2  0  0  0
   -8.8458   -2.3123   -0.9499 C   0  0  1  0  0  0
   -7.3542   -0.0958   -2.5178 C   0  0
   -6.9176   -1.5969   -2.6609 C   0  0
   -7.2098   -2.3371   -1.2950 C   0  0  2  0  0  0
   -8.4177   -4.4886    0.5202 C   0  0
   -9.0408   -2.9771    0.4592 C   0  0
   -6.5240   -3.8605   -1.2434 C   0  0  2  0  0  0
   -6.8268   -4.4760    0.2488 C   0  0  2  0  0  0
   -6.1999   -6.1131    0.2366 C   0  0  1  0  0  0
   -4.9090   -3.8176   -1.4230 C   0  0
   -4.3179   -5.2876   -1.3984 C   0  0
   -4.5854   -6.1416   -0.1052 C   0  0  1  0  0  0
   -5.5076   -6.8534    2.8196 C   0  0  1  0  0  0
   -6.3730   -7.1425    1.5222 C   0  0
   -3.7260   -5.7222    1.2162 C   0  0
   -4.0024   -6.7915    2.3902 C   0  0
  -11.3782    2.4224   -2.2066 O   0  0
   -8.8234    2.6422   -3.0782 C   0  0
   -9.6756   -0.2790   -3.5761 C   0  0
   -9.8582   -3.1279   -1.9028 C   0  0
   -7.0826   -4.7716   -2.4739 C   0  0
   -4.0777   -7.5648   -0.5524 C   0  0
   -6.2012   -3.4498    1.3529 C   0  0
   -5.9739   -5.6928    3.6096 C   0  0
   -5.6811   -8.0093    3.7994 C   0  0
   -8.5835   -0.2959   -0.1070 H   0  0
   -6.7225   -1.7487   -0.5238 H   0  0
   -6.7449   -6.5663   -0.5880 H   0  0
   -7.1782   -5.4143    3.5888 O   0  0
   -5.1596   -4.9718    4.3894 N   0  0
    1.8376   -1.7141    6.0877 O   0  0
    1.4912   -0.3687    6.4012 C   0  0
    0.2113    0.0223    5.6371 C   0  0  1  0  0  0
   -0.8504   -0.8702    6.0314 O   0  0
   -2.0849   -0.5866    5.3368 C   0  0  1  0  0  0
   -3.0453   -1.5774    5.7170 N   0  0
   -2.5591    0.8684    5.7294 C   0  0  2  0  0  0
   -3.7823    1.2765    5.0714 O   0  0
   -1.4632    1.8454    5.2806 C   0  0  1  0  0  0
   -1.8488    3.2251    5.5881 O   0  0
   -0.1563    1.4925    5.9753 C   0  0  2  0  0  0
    1.5299    5.3554    3.6401 C   0  0  2  0  0  0
    0.2515    4.4201    3.4456 C   0  0  2  0  0  0
    0.6640    3.0498    3.1980 O   0  0
    1.5162    2.4809    4.2475 C   0  0  1  0  0  0
    2.7960    3.3002    4.4083 C   0  0  1  0  0  0
    2.3888    4.7769    4.7917 C   0  0  1  0  0  0
    3.5265    2.5804    5.4575 O   0  0
    3.5332    5.6877    5.0152 O   0  0
    1.2236    6.7424    4.0280 O   0  0
   -0.6199    4.8576    2.2112 C   0  0
   -1.7687    4.0286    1.9701 O   0  0
    0.9446    2.4327    5.6205 O   0  0
   -3.8551   -2.2548    4.8643 C   0  0
   -4.6133   -3.0069    5.6254 C   0  0
   -4.2291   -2.7951    6.9645 N   0  0
   -3.3185   -1.9682    6.9850 N   0  0
   -5.7092   -3.9008    5.1543 C   0  0
   -2.7775    4.2092    2.9123 C   0  0
   -4.0458    3.4307    2.7758 C   0  0
   -2.6594    5.0353    3.8247 O   0  0
    3.0018   -2.0627    6.7633 C   0  0
    3.5767   -3.4363    6.5962 C   0  0
    3.5660   -1.2425    7.4969 O   0  0
    0.8795    7.6349    2.9942 C   0  0
    0.5229    9.0473    3.3328 C   0  0
    0.9202    7.2857    1.8097 O   0  0
   -4.9416    0.7251    5.6287 C   0  0
   -6.2730    1.0369    5.0249 C   0  0
   -4.8852    0.0221    6.6423 O   0  0
    4.4143    5.9757    3.9150 C   0  0
    5.5478    6.9286    4.1374 C   0  0
    4.2913    5.4465    2.8038 O   0  0
   -2.0812    3.5920    6.9449 C   0  0
   -2.4609    5.0069    7.2401 C   0  0
   -1.9786    2.7942    7.8850 O   0  0
    4.8473    2.9386    5.7317 C   0  0
    5.5741    2.2221    6.8258 C   0  0
    5.4469    3.7781    5.0656 O   0  0
  -10.9821   -0.9929    0.4257 H   0  0
  -11.3796   -0.8654   -1.3133 H   0  0
  -12.0523    1.2173   -0.0824 H   0  0
  -10.3399    1.3486    0.4979 H   0  0
   -8.5481    1.8583   -1.0506 H   0  0
   -6.8024    0.2980   -1.6535 H   0  0
   -7.0697    0.4649   -3.4164 H   0  0
   -7.4271   -2.0933   -3.4967 H   0  0
   -5.8378   -1.5996   -2.8416 H   0  0
   -8.5929   -4.9013    1.5228 H   0  0
   -8.9111   -5.1267   -0.2203 H   0  0
  -10.1085   -2.9808    0.7102 H   0  0
   -8.5220   -2.3734    1.1957 H   0  0
   -4.4480   -3.2166   -0.6370 H   0  0
   -4.6684   -3.3720   -2.3956 H   0  0
   -4.7852   -5.8154   -2.2161 H   0  0
   -3.2365   -5.2741   -1.5856 H   0  0
   -6.0195   -8.1113    1.1683 H   0  0
   -7.4329   -7.2349    1.7928 H   0  0
   -3.9644   -4.7430    1.5557 H   0  0
   -2.6593   -5.7538    0.9607 H   0  0
   -3.7254   -7.7698    2.0084 H   0  0
   -3.3868   -6.5807    3.2729 H   0  0
   -7.7589    2.5770   -3.3394 H   0  0
   -9.0480    3.6593   -2.7295 H   0  0
   -9.4307    2.4274   -3.9661 H   0  0
   -9.4871   -1.2981   -3.8558 H   0  0
   -9.3532    0.3549   -4.4077 H   0  0
  -10.7519   -0.1427   -3.4173 H   0  0
  -10.8825   -2.9976   -1.5387 H   0  0
   -9.6479   -4.1750   -1.8854 H   0  0
   -9.8013   -2.7998   -2.9109 H   0  0
   -6.8228   -4.2932   -3.4254 H   0  0
   -8.1174   -4.8994   -2.4271 H   0  0
   -6.6546   -5.7675   -2.4646 H   0  0
   -4.2244   -8.3200    0.2187 H   0  0
   -3.0082   -7.5013   -0.7928 H   0  0
   -4.6346   -7.8690   -1.4490 H   0  0
   -6.4192   -3.7807    2.3124 H   0  0
   -6.6096   -2.4538    1.2708 H   0  0
   -5.1340   -3.3601    1.2406 H   0  0
   -5.0648   -7.8253    4.6904 H   0  0
   -5.3641   -8.9444    3.3175 H   0  0
   -6.7379   -8.0836    4.0905 H   0  0
   -4.1941   -5.1710    4.4570 H   0  0
    1.3153   -0.2751    7.4815 H   0  0
    2.3132    0.2983    6.1047 H   0  0
    0.3786   -0.0796    4.5566 H   0  0
   -1.9312   -0.6333    4.2500 H   0  0
   -2.6944    0.9438    6.8140 H   0  0
   -1.3337    1.7588    4.1933 H   0  0
   -0.3149    1.5656    7.0555 H   0  0
    2.1351    5.3535    2.7316 H   0  0
   -0.3381    4.4472    4.3659 H   0  0
    1.8152    1.4687    3.9549 H   0  0
    3.3617    3.3016    3.4672 H   0  0
    1.7910    4.7531    5.7132 H   0  0
    0.0298    4.7948    1.3275 H   0  0
   -0.9621    5.8884    2.3324 H   0  0
   -3.8927   -2.1671    3.8079 H   0  0
   -6.2756   -4.3080    6.0027 H   0  0
   -6.3787   -3.3500    4.4786 H   0  0
   -4.7606    3.7019    3.5662 H   0  0
   -3.8052    2.3574    2.8208 H   0  0
   -4.4705    3.6120    1.7784 H   0  0
    4.3238   -3.6430    7.3761 H   0  0
    4.0572   -3.4886    5.6083 H   0  0
    2.7653   -4.1785    6.5965 H   0  0
    0.9545    9.7291    2.5861 H   0  0
    0.8463    9.2938    4.3542 H   0  0
   -0.5706    9.1471    3.2679 H   0  0
   -7.0473    1.0524    5.8052 H   0  0
   -6.5226    0.2287    4.3218 H   0  0
   -6.2272    1.9815    4.4645 H   0  0
    6.1988    6.9769    3.2530 H   0  0
    6.1076    6.6169    5.0311 H   0  0
    5.1300    7.9212    4.3614 H   0  0
   -1.7859    5.4061    8.0109 H   0  0
   -3.4708    5.0152    7.6743 H   0  0
   -2.4296    5.6175    6.3251 H   0  0
    6.5800    1.9459    6.4785 H   0  0
    5.0015    1.3449    7.1636 H   0  0
    5.7089    2.9213    7.6641 H   0  0
  1  2  1  0
  2  3  1  0
  3  4  1  0
  4  5  1  0
  5  6  1  0
  1  6  1  0
  8  9  1  0
  9 10  1  0
  7 10  1  0
  5  8  1  0
  7  6  1  0
 11 12  1  0
 13 14  1  0
 11 14  1  0
 12  7  1  0
 16 17  1  0
 17 18  1  0
 15 18  1  0
 13 16  1  0
 15 14  1  0
 19 20  1  0
 21 22  1  0
 19 22  1  0
 20 15  1  0
 18 21  1  0
  3 23  2  0
 10 13  1  0
 19 30  1  0
 19 31  1  0
  4 24  1  0
  5 25  1  0
  6 32  1  0
 10 33  1  0
  7 26  1  0
 13 27  1  0
 14 29  1  0
 18 28  1  0
 15 34  1  0
 30 36  1  0
 30 35  2  0
 37 38  1  0
 39 38  1  0
 39 40  1  0
 40 41  1  0
 41 42  1  0
 41 43  1  0
 43 45  1  0
 45 46  1  0
 45 47  1  0
 39 47  1  0
 48 49  1  0
 49 50  1  0
 51 50  1  0
 52 51  1  0
 53 52  1  0
 53 48  1  0
 57 58  1  0
 52 54  1  0
 53 55  1  0
 48 56  1  0
 49 57  1  0
 51 59  1  0
 47 59  1  0
 61 62  1  0
 63 42  1  0
 60 42  1  0
 62 63  2  0
 60 61  2  0
 61 64  1  0
 64 36  1  0
 43 44  1  0
 69 68  1  0
 68 37  1  0
 68 70  2  0
 75 74  1  0
 74 44  1  0
 74 76  2  0
 81 80  1  0
 80 46  1  0
 80 82  2  0
 84 83  1  0
 83 54  1  0
 83 85  2  0
 78 77  1  0
 77 55  1  0
 77 79  2  0
 72 71  1  0
 71 56  1  0
 71 73  2  0
 66 65  1  0
 65 58  1  0
 65 67  2  0
  1 86  1  0
  1 87  1  0
  2 88  1  0
  2 89  1  0
  4 90  1  0
  8 91  1  0
  8 92  1  0
  9 93  1  0
  9 94  1  0
 11 95  1  0
 11 96  1  0
 12 97  1  0
 12 98  1  0
 16 99  1  0
 16100  1  0
 17101  1  0
 17102  1  0
 20103  1  0
 20104  1  0
 21105  1  0
 21106  1  0
 22107  1  0
 22108  1  0
 24109  1  0
 24110  1  0
 24111  1  0
 25112  1  0
 25113  1  0
 25114  1  0
 26115  1  0
 26116  1  0
 26117  1  0
 27118  1  0
 27119  1  0
 27120  1  0
 28121  1  0
 28122  1  0
 28123  1  0
 29124  1  0
 29125  1  0
 29126  1  0
 31127  1  0
 31128  1  0
 31129  1  0
 36130  1  0
 38131  1  0
 38132  1  0
 39133  1  0
 41134  1  0
 43135  1  0
 45136  1  0
 47137  1  0
 48138  1  0
 49139  1  0
 51140  1  0
 52141  1  0
 53142  1  0
 57143  1  0
 57144  1  0
 60145  1  0
 64146  1  0
 64147  1  0
 66148  1  0
 66149  1  0
 66150  1  0
 69151  1  0
 69152  1  0
 69153  1  0
 72154  1  0
 72155  1  0
 72156  1  0
 75157  1  0
 75158  1  0
 75159  1  0
 78160  1  0
 78161  1  0
 78162  1  0
 81163  1  0
 81164  1  0
 81165  1  0
 84166  1  0
 84167  1  0
 84168  1  0
M  END
> <Name>
RCGP2021_S6e

> <Clean Energy>
236.203

$$$$
RCGP2021_S7
  SciTegic12132405553D

104108  0  0  0  0            999 V2000
   -8.6095   -7.2142   -1.9066 C   0  0
   -9.3985   -7.1118   -3.2286 C   0  0
   -9.3569   -8.4345   -3.8964 C   0  0
   -8.0202   -8.9440   -4.2860 C   0  0  1  0  0  0
   -7.2060   -9.1759   -2.9489 C   0  0  2  0  0  0
   -7.1406   -7.7256   -2.1946 C   0  0  2  0  0  0
   -6.2085   -7.6995   -0.8532 C   0  0  1  0  0  0
   -5.7471   -9.5684   -3.2785 C   0  0
   -4.7948   -9.6407   -2.0306 C   0  0
   -4.7050   -8.2007   -1.3860 C   0  0  2  0  0  0
   -4.9206   -6.1174    0.8476 C   0  0
   -6.0542   -6.2322   -0.3194 C   0  0
   -3.5032   -8.0978   -0.2276 C   0  0  2  0  0  0
   -3.4656   -6.5401    0.2909 C   0  0  2  0  0  0
   -2.2883   -6.4784    1.5874 C   0  0  1  0  0  0
   -2.0307   -8.4319   -0.8307 C   0  0
   -0.9410   -8.3370    0.3149 C   0  0
   -0.8051   -6.9553    1.0668 C   0  0  1  0  0  0
   -1.2555   -3.8710    1.8068 C   0  0  1  0  0  0
   -2.0031   -5.1047    2.4860 C   0  0
   -0.0961   -5.7407    0.2379 C   0  0
    0.0987   -4.4727    1.2124 C   0  0
  -10.3908   -9.0490   -4.1795 O   0  0
   -8.1622  -10.1829   -5.2200 C   0  0
   -7.8993  -10.3747   -2.1543 C   0  0
   -6.9055   -8.4833    0.3711 C   0  0
   -3.7591   -9.1934    0.9500 C   0  0
    0.1678   -7.3389    2.2458 C   0  0
   -3.1822   -5.5947   -1.0145 C   0  0
   -2.1309   -3.0978    0.8335 C   0  0
   -0.9709   -2.8381    2.9129 C   0  0
   -6.6574   -7.0403   -2.9039 H   0  0
   -4.4232   -7.5290   -2.1898 H   0  0
   -2.6717   -7.2148    2.2891 H   0  0
   -3.3081   -3.4368    0.9043 O   0  0
   -1.7407   -1.9497   -0.1493 N   0  0
   -2.7682   -1.3356   -1.0790 C   0  0
   -4.2421   -1.3837   -0.6077 C   0  0
   -2.6980   -2.0737   -2.4275 C   0  0
   -0.4193   -1.2757   -0.3415 C   0  0
   -0.3678   -0.4160   -1.2291 O   0  0
    0.7581   -1.4022    0.4338 N   0  0
    1.8905   -0.5794    0.1409 C   0  0
    2.6206   -1.1280   -1.0974 C   0  0
    2.8551   -0.6033    1.3317 C   0  0
   -8.5869   -6.2209   -1.4442 H   0  0
   -9.1151   -7.9163   -1.2332 H   0  0
  -10.4308   -6.7835   -3.0464 H   0  0
   -8.8554   -6.3877   -3.8516 H   0  0
   -7.4848   -8.1400   -4.8097 H   0  0
   -5.3262   -8.7949   -3.9349 H   0  0
   -5.7490  -10.5303   -3.8052 H   0  0
   -5.1364  -10.3820   -1.2972 H   0  0
   -3.8041   -9.9258   -2.4001 H   0  0
   -4.8725   -5.0757    1.1847 H   0  0
   -5.1888   -6.7544    1.6964 H   0  0
   -7.0271   -5.8780    0.0426 H   0  0
   -5.7474   -5.5978   -1.1443 H   0  0
   -1.7778   -7.7466   -1.6401 H   0  0
   -2.0266   -9.4562   -1.2230 H   0  0
   -1.2247   -9.0634    1.0619 H   0  0
    0.0479   -8.6213   -0.0676 H   0  0
   -1.3306   -5.4239    3.2818 H   0  0
   -2.9392   -4.7549    2.9408 H   0  0
   -0.6539   -5.4531   -0.6156 H   0  0
    0.8939   -6.0806   -0.0917 H   0  0
    0.6936   -4.8160    2.0518 H   0  0
    0.6507   -3.7034    0.7038 H   0  0
   -7.1691  -10.5429   -5.5188 H   0  0
   -8.7253   -9.8903   -6.1166 H   0  0
   -8.7027  -10.9873   -4.7063 H   0  0
   -7.3649  -10.5946   -1.2496 H   0  0
   -7.8895  -11.2792   -2.7697 H   0  0
   -8.9368  -10.1204   -1.9064 H   0  0
   -7.8797   -8.0312    0.5830 H   0  0
   -6.3219   -8.4077    1.2624 H   0  0
   -7.0384   -9.5141    0.1544 H   0  0
   -3.7522  -10.1997    0.5153 H   0  0
   -4.6689   -9.0382    1.4376 H   0  0
   -2.9936   -9.1472    1.7163 H   0  0
    0.3521   -6.5050    2.9214 H   0  0
    1.1237   -7.6748    1.8224 H   0  0
   -0.2842   -8.1593    2.8195 H   0  0
   -3.1783   -4.5911   -0.7507 H   0  0
   -3.9350   -5.7111   -1.7799 H   0  0
   -2.2369   -5.8334   -1.4686 H   0  0
   -0.4417   -1.9807    2.5047 H   0  0
   -0.3607   -3.3072    3.6967 H   0  0
   -1.9244   -2.5014    3.3419 H   0  0
   -2.4922   -0.2900   -1.2586 H   0  0
   -4.8763   -0.8962   -1.3613 H   0  0
   -4.3392   -0.8566    0.3511 H   0  0
   -4.5639   -2.4261   -0.4917 H   0  0
   -3.3958   -1.6053   -3.1351 H   0  0
   -2.9724   -3.1189   -2.2865 H   0  0
   -1.6753   -2.0137   -2.8268 H   0  0
    0.8205   -1.9852    1.1589 H   0  0
    1.5579    0.4449   -0.0789 H   0  0
    3.4935   -0.4960   -1.3145 H   0  0
    1.9392   -1.1207   -1.9604 H   0  0
    2.9514   -2.1566   -0.8990 H   0  0
    3.7302    0.0226    1.1072 H   0  0
    3.1799   -1.6384    1.5135 H   0  0
    2.3442   -0.2169    2.2248 H   0  0
  1  2  1  0
  2  3  1  0
  4  3  1  0
  5  4  1  0
  5  6  1  0
  6  1  1  0
  8  9  1  0
 10  9  1  0
  7 10  1  0
  5  8  1  0
  6  7  1  0
 11 12  1  0
 13 14  1  0
 14 11  1  0
  7 12  1  0
 16 17  1  0
 18 17  1  0
 15 18  1  0
 13 16  1  0
 14 15  1  0
 19 20  1  0
 21 22  1  0
 19 22  1  0
 15 20  1  0
 18 21  1  0
  3 23  2  0
 10 13  1  0
 19 30  1  0
 19 31  1  0
  4 24  1  0
  5 25  1  0
  6 32  1  0
 10 33  1  0
  7 26  1  0
 13 27  1  0
 14 29  1  0
 18 28  1  0
 15 34  1  0
 30 36  1  0
 30 35  2  0
 36 37  1  0
 37 38  1  0
 37 39  1  0
 36 40  1  0
 40 41  2  0
 40 42  1  0
 42 43  1  0
 43 44  1  0
 43 45  1  0
  1 46  1  0
  1 47  1  0
  2 48  1  0
  2 49  1  0
  4 50  1  0
  8 51  1  0
  8 52  1  0
  9 53  1  0
  9 54  1  0
 11 55  1  0
 11 56  1  0
 12 57  1  0
 12 58  1  0
 16 59  1  0
 16 60  1  0
 17 61  1  0
 17 62  1  0
 20 63  1  0
 20 64  1  0
 21 65  1  0
 21 66  1  0
 22 67  1  0
 22 68  1  0
 24 69  1  0
 24 70  1  0
 24 71  1  0
 25 72  1  0
 25 73  1  0
 25 74  1  0
 26 75  1  0
 26 76  1  0
 26 77  1  0
 27 78  1  0
 27 79  1  0
 27 80  1  0
 28 81  1  0
 28 82  1  0
 28 83  1  0
 29 84  1  0
 29 85  1  0
 29 86  1  0
 31 87  1  0
 31 88  1  0
 31 89  1  0
 37 90  1  0
 38 91  1  0
 38 92  1  0
 38 93  1  0
 39 94  1  0
 39 95  1  0
 39 96  1  0
 42 97  1  0
 43 98  1  0
 44 99  1  0
 44100  1  0
 44101  1  0
 45102  1  0
 45103  1  0
 45104  1  0
M  END
> <Name>
RCGP2021_S7

> <Clean Energy>
130.936

$$$$
RCGP2021_S8
  SciTegic12132405553D

 93 99  0  0  0  0            999 V2000
   -3.4130    2.5291    0.1513 C   0  0
   -4.7155    2.8382   -0.6122 C   0  0
   -5.2276    1.5696   -1.1820 C   0  0
   -4.3592    0.8812   -2.1681 C   0  0  1  0  0  0
   -3.0499    0.4356   -1.3982 C   0  0  2  0  0  0
   -2.3803    1.8070   -0.8082 C   0  0  2  0  0  0
   -0.9283    1.5999   -0.0935 C   0  0  1  0  0  0
   -2.0243   -0.1663   -2.3896 C   0  0
   -0.6154   -0.4740   -1.7592 C   0  0
    0.0242    0.8858   -1.2748 C   0  0  2  0  0  0
    1.2684    2.8428    0.7224 C   0  0
   -0.2826    2.9885    0.2518 C   0  0
    1.6321    0.7110   -0.8356 C   0  0  2  0  0  0
    2.1818    2.2084   -0.4446 C   0  0  2  0  0  0
    3.8028    1.9946    0.1436 C   0  0  1  0  0  0
    2.5709    0.1647   -2.0507 C   0  0
    4.0695   -0.0054   -1.5404 C   0  0
    4.7812    1.2834   -0.9780 C   0  0  1  0  0  0
    5.2609    4.3153   -0.3032 C   0  0  1  0  0  0
    4.6788    3.2588    0.7352 C   0  0
    5.2494    2.3783   -2.0908 C   0  0
    6.1016    3.5491   -1.3610 C   0  0
   -6.3500    1.1387   -0.8965 O   0  0
   -5.1472   -0.2550   -2.8845 C   0  0
   -3.4621   -0.6869   -0.3397 C   0  0
   -1.0781    0.8721    1.3403 C   0  0
    1.7673   -0.4006    0.3509 C   0  0
    6.0938    0.6818   -0.3500 C   0  0
    1.9799    3.1688   -1.7447 C   0  0
    4.3046    5.2000   -0.9628 C   0  0
    6.1609    5.2805    0.4623 C   0  0
   -2.1936    2.4473   -1.6804 H   0  0
    0.0006    1.5494   -2.1330 H   0  0
    3.6552    1.3085    0.9740 H   0  0
    4.5601    5.5702   -2.1123 O   0  0
    3.1488    5.6530   -0.2916 O   0  0
    2.4267    6.5058   -1.0515 N   0  0
    2.7599    6.9994   -2.2895 N   0  0
    1.8792    7.7633   -2.6850 N   0  0
    0.8849    7.8025   -1.7082 C   0  0
    1.2324    7.0312   -0.7242 C   0  0
    0.4097    6.8333    0.4384 C   0  0
   -0.3561    8.5336   -1.7071 C   0  0
   -1.1616    8.3879   -0.6495 C   0  0
   -0.7582    7.4856    0.4849 C   0  0
   -2.9994    3.4747    0.5202 H   0  0
   -3.6382    1.8753    1.0027 H   0  0
   -5.4545    3.3126    0.0481 H   0  0
   -4.4332    3.5051   -1.4378 H   0  0
   -4.0187    1.6223   -2.9042 H   0  0
   -1.8469    0.5689   -3.1863 H   0  0
   -2.4474   -1.0794   -2.8256 H   0  0
   -0.6869   -1.1940   -0.9345 H   0  0
    0.0097   -0.8942   -2.5547 H   0  0
    1.6581    3.8427    0.9604 H   0  0
    1.3292    2.2134    1.6163 H   0  0
   -0.8818    3.4819    1.0270 H   0  0
   -0.3029    3.6082   -0.6395 H   0  0
    2.5398    0.8456   -2.9030 H   0  0
    2.2064   -0.8189   -2.3713 H   0  0
    4.0320   -0.7120   -0.7281 H   0  0
    4.7042   -0.4368   -2.3254 H   0  0
    5.5686    2.8123    1.1845 H   0  0
    4.1087    3.7717    1.5209 H   0  0
    4.4179    2.8007   -2.6127 H   0  0
    5.9009    1.8751   -2.8164 H   0  0
    6.9377    3.0782   -0.8529 H   0  0
    6.5012    4.2678   -2.0880 H   0  0
   -4.5040   -0.7475   -3.6252 H   0  0
   -6.0167    0.1818   -3.3943 H   0  0
   -5.4967   -0.9953   -2.1546 H   0  0
   -2.6007   -1.0471    0.1920 H   0  0
   -3.9066   -1.5400   -0.8616 H   0  0
   -4.1875   -0.2882    0.3792 H   0  0
   -1.7336    1.4663    1.9840 H   0  0
   -0.1356    0.7967    1.8368 H   0  0
   -1.4767   -0.1078    1.2455 H   0  0
    1.3903   -1.3640   -0.0123 H   0  0
    1.2389   -0.1286    1.2043 H   0  0
    2.7952   -0.5333    0.6656 H   0  0
    6.7068    1.4389    0.1366 H   0  0
    6.6800    0.2010   -1.1446 H   0  0
    5.8101   -0.0704    0.3983 H   0  0
    2.2681    4.1363   -1.5216 H   0  0
    0.9487    3.2215   -2.0626 H   0  0
    2.5546    2.8122   -2.5851 H   0  0
    6.6090    5.9958   -0.2403 H   0  0
    6.9546    4.7126    0.9677 H   0  0
    5.5620    5.8214    1.2084 H   0  0
    0.7139    6.1892    1.2241 H   0  0
   -0.6220    9.1641   -2.5185 H   0  0
   -2.0852    8.9080   -0.6123 H   0  0
   -1.3996    7.3663    1.3199 H   0  0
  1  2  1  0
  2  3  1  0
  4  3  1  0
  5  4  1  0
  5  6  1  0
  6  1  1  0
  8  9  1  0
 10  9  1  0
  7 10  1  0
  5  8  1  0
  6  7  1  0
 11 12  1  0
 13 14  1  0
 14 11  1  0
  7 12  1  0
 16 17  1  0
 18 17  1  0
 15 18  1  0
 13 16  1  0
 14 15  1  0
 19 20  1  0
 21 22  1  0
 19 22  1  0
 15 20  1  0
 18 21  1  0
  3 23  2  0
 10 13  1  0
 19 30  1  0
 19 31  1  0
  4 24  1  0
  5 25  1  0
  6 32  1  0
 10 33  1  0
  7 26  1  0
 13 27  1  0
 14 29  1  0
 18 28  1  0
 15 34  1  0
 30 36  1  0
 30 35  2  0
 36 37  1  0
 39 40  1  0
 37 38  1  0
 37 41  1  0
 43 44  2  0
 44 45  1  0
 42 45  2  0
 40 43  1  0
 42 41  1  0
 41 40  2  0
 38 39  2  0
  1 46  1  0
  1 47  1  0
  2 48  1  0
  2 49  1  0
  4 50  1  0
  8 51  1  0
  8 52  1  0
  9 53  1  0
  9 54  1  0
 11 55  1  0
 11 56  1  0
 12 57  1  0
 12 58  1  0
 16 59  1  0
 16 60  1  0
 17 61  1  0
 17 62  1  0
 20 63  1  0
 20 64  1  0
 21 65  1  0
 21 66  1  0
 22 67  1  0
 22 68  1  0
 24 69  1  0
 24 70  1  0
 24 71  1  0
 25 72  1  0
 25 73  1  0
 25 74  1  0
 26 75  1  0
 26 76  1  0
 26 77  1  0
 27 78  1  0
 27 79  1  0
 27 80  1  0
 28 81  1  0
 28 82  1  0
 28 83  1  0
 29 84  1  0
 29 85  1  0
 29 86  1  0
 31 87  1  0
 31 88  1  0
 31 89  1  0
 42 90  1  0
 43 91  1  0
 44 92  1  0
 45 93  1  0
M  END
> <Name>
RCGP2021_S8

> <Clean Energy>
117.318

$$$$
RCGP2016_S2
  SciTegic12132405553D

 80 79  0  0  0  0            999 V2000
   -9.2493    0.0722    0.0887 C   0  0
   -8.0435    1.0050    0.0478 C   0  0
   -6.8350    0.4240    0.1142 C   0  0
   -5.5428    1.1991    0.0852 C   0  0
   -4.3413    0.2331    0.1986 C   0  0
   -2.9803    0.9223    0.1766 C   0  0
   -1.9045    0.1197    0.1634 C   0  0
   -0.4860    0.6321    0.1357 C   0  0
    0.4932   -0.5434    0.1138 C   0  0
    1.9144   -0.0310    0.0831 C   0  0
    2.9719   -0.8510    0.0331 C   0  0
    4.3552   -0.1829    0.0031 C   0  0
    5.5559   -1.1483    0.0654 C   0  0
    6.8512   -0.3734    0.0235 C   0  0
    8.0462   -0.9783    0.0186 C   0  0
    9.2772   -0.0617   -0.0287 C   0  0
   10.6406   -0.7793    0.0383 C   0  0
  -10.6144    0.7964    0.0400 C   0  0
  -11.7311   -0.2145    0.0841 C   0  0
  -13.0181    0.1493    0.0523 C   0  0
  -14.0687   -0.9130    0.0990 C   0  0
   11.7584    0.2298   -0.0184 C   0  0
   13.0451   -0.1361    0.0015 C   0  0
   14.0971    0.9241   -0.0585 C   0  0
  -13.4457    1.5975   -0.0296 C   0  0
   -8.2372    2.5351   -0.0651 C   0  0
   -2.8794    2.4643    0.1664 C   0  0
    2.7726   -2.3839    0.0051 C   0  0
    8.1418   -2.5216    0.0574 C   0  0
   13.4710   -1.5849    0.0822 C   0  0
   -9.1633   -0.6271   -0.7542 H   0  0
   -9.1746   -0.5377    0.9995 H   0  0
   -6.7873   -0.6328    0.1907 H   0  0
   -5.4934    1.7708   -0.8538 H   0  0
   -5.5449    1.9200    0.9165 H   0  0
   -4.4126   -0.3425    1.1316 H   0  0
   -4.3620   -0.5029   -0.6170 H   0  0
   -2.0599   -0.9294    0.1704 H   0  0
   -0.3475    1.2636   -0.7536 H   0  0
   -0.3111    1.2613    1.0201 H   0  0
    0.3529   -1.1729    1.0049 H   0  0
    0.3136   -1.1720   -0.7707 H   0  0
    2.0803    1.0163    0.0998 H   0  0
    4.4133    0.4166   -0.9157 H   0  0
    4.4002    0.5334    0.8352 H   0  0
    5.5223   -1.7421    0.9914 H   0  0
    5.5295   -1.8485   -0.7830 H   0  0
    6.8135    0.6860   -0.0053 H   0  0
    9.2155    0.5293   -0.9527 H   0  0
    9.1894    0.6584    0.7965 H   0  0
   10.7256   -1.3574    0.9708 H   0  0
   10.7483   -1.4816   -0.8021 H   0  0
  -10.7203    1.4831    0.8940 H   0  0
  -10.7072    1.3893   -0.8829 H   0  0
  -11.4892   -1.2453    0.1417 H   0  0
  -15.0746   -0.4691    0.1160 H   0  0
  -13.8975   -1.5441    0.9824 H   0  0
  -13.9468   -1.5652   -0.7772 H   0  0
   11.5177    1.2609   -0.0765 H   0  0
   15.1021    0.4783   -0.0793 H   0  0
   13.9816    1.5826    0.8138 H   0  0
   13.9215    1.5493   -0.9453 H   0  0
  -14.5420    1.6768   -0.0449 H   0  0
  -13.0110    2.0508   -0.9332 H   0  0
  -13.0289    2.1451    0.8290 H   0  0
   -7.2968    3.0893   -0.1031 H   0  0
   -8.8372    2.8763    0.7914 H   0  0
   -8.8361    2.7496   -0.9624 H   0  0
   -1.8522    2.8305    0.2274 H   0  0
   -3.4754    2.8664    0.9987 H   0  0
   -3.3503    2.8363   -0.7556 H   0  0
    3.7052   -2.9405   -0.0918 H   0  0
    2.0946   -2.6396   -0.8223 H   0  0
    2.2542   -2.6833    0.9281 H   0  0
    9.1655   -2.8944    0.0169 H   0  0
    7.5595   -2.9331   -0.7803 H   0  0
    7.6503   -2.8786    0.9745 H   0  0
   14.5672   -1.6662    0.0870 H   0  0
   13.0451   -2.1333   -0.7716 H   0  0
   13.0442   -2.0360    0.9906 H   0  0
  1  2  1  0
  2  3  2  0
  3  4  1  0
  4  5  1  0
  5  6  1  0
  6  7  2  0
  7  8  1  0
  8  9  1  0
  9 10  1  0
 10 11  2  0
 11 12  1  0
 12 13  1  0
 13 14  1  0
 14 15  2  0
 15 16  1  0
 16 17  1  0
  1 18  1  0
 18 19  1  0
 19 20  2  0
 20 21  1  0
 17 22  1  0
 22 23  2  0
 23 24  1  0
 20 25  1  0
  2 26  1  0
  6 27  1  0
 11 28  1  0
 15 29  1  0
 23 30  1  0
  1 31  1  0
  1 32  1  0
  3 33  1  0
  4 34  1  0
  4 35  1  0
  5 36  1  0
  5 37  1  0
  7 38  1  0
  8 39  1  0
  8 40  1  0
  9 41  1  0
  9 42  1  0
 10 43  1  0
 12 44  1  0
 12 45  1  0
 13 46  1  0
 13 47  1  0
 14 48  1  0
 16 49  1  0
 16 50  1  0
 17 51  1  0
 17 52  1  0
 18 53  1  0
 18 54  1  0
 19 55  1  0
 21 56  1  0
 21 57  1  0
 21 58  1  0
 22 59  1  0
 24 60  1  0
 24 61  1  0
 24 62  1  0
 25 63  1  0
 25 64  1  0
 25 65  1  0
 26 66  1  0
 26 67  1  0
 26 68  1  0
 27 69  1  0
 27 70  1  0
 27 71  1  0
 28 72  1  0
 28 73  1  0
 28 74  1  0
 29 75  1  0
 29 76  1  0
 29 77  1  0
 30 78  1  0
 30 79  1  0
 30 80  1  0
M  END
> <Name>
RCGP2016_S2

> <Clean Energy>
204.434

$$$$
RCGP2016_S4
  SciTegic12132405553D

 81 85  0  0  0  0            999 V2000
   -4.8359   -1.1789   -0.6834 C   0  0
   -4.7648   -2.6242   -0.3589 C   0  0
   -3.4975   -3.3201   -0.6877 C   0  0  1  0  0  0
   -2.3703   -2.6804    0.2201 C   0  0  2  0  0  0
   -2.3377   -1.0858   -0.1480 C   0  0  1  0  0  0
   -3.7545   -0.4465    0.1384 C   0  0
   -5.7391   -3.2345    0.0936 O   0  0
   -0.9873   -3.2516   -0.1720 C   0  0
    0.2331   -2.5503    0.5287 C   0  0
    0.2535   -1.0373    0.0821 C   0  0  1  0  0  0
   -1.1330   -0.2497    0.5683 C   0  0  1  0  0  0
    1.6519   -0.2654    0.4983 C   0  0  2  0  0  0
    1.6257    1.1746   -0.0326 C   0  0  1  0  0  0
    0.3145    1.9743    0.4856 C   0  0
   -1.0503    1.2169   -0.0091 C   0  0
    2.9664   -1.0012   -0.2840 C   0  0
    4.2931   -0.0031   -0.7046 C   0  0
    4.5978    0.9796    0.3135 C   0  0  2  0  0  0
    3.1098    1.9008    0.5624 C   0  0  1  0  0  0
    5.8566    1.9636   -0.1329 C   0  0
    5.8096    3.0810    0.8503 C   0  0
    4.5455    3.9933    0.4821 C   0  0
    3.3142    3.1752   -0.1317 C   0  0
    4.8389    5.0100   -0.6314 C   0  0
    4.2352    4.7383    1.7853 C   0  0
    5.1250    0.1184    1.5662 C   0  0
    1.4789    1.2375   -1.6948 C   0  0
    1.8506   -0.2843    2.1155 C   0  0
   -1.4150   -0.0411    2.1471 C   0  0
   -2.6810   -3.0689    1.7362 C   0  0
   -3.6760   -4.8629   -0.5657 C   0  0
   -4.5599   -1.0431   -1.7384 H   0  0
   -5.8330   -0.7671   -0.4775 H   0  0
   -3.2176   -3.0563   -1.7170 H   0  0
   -2.1342   -1.0328   -1.2261 H   0  0
   -3.9860   -0.5351    1.2064 H   0  0
   -3.7635    0.6113   -0.1482 H   0  0
   -0.9741   -4.3276    0.0393 H   0  0
   -0.8478   -3.0909   -1.2496 H   0  0
    0.1894   -2.6390    1.6218 H   0  0
    1.1387   -3.0436    0.1606 H   0  0
    0.2341   -1.0323   -1.0100 H   0  0
    0.3377    2.9943    0.0808 H   0  0
    0.3227    2.0262    1.5779 H   0  0
   -1.9464    1.7759    0.2876 H   0  0
   -1.0288    1.1566   -1.0904 H   0  0
    3.2113   -1.9218    0.2627 H   0  0
    2.6562   -1.2795   -1.2998 H   0  0
    5.1567   -0.6205   -0.9825 H   0  0
    4.0214    0.5968   -1.5583 H   0  0
    3.0673    2.1410    1.6319 H   0  0
    6.7744    1.3613   -0.1299 H   0  0
    5.7215    2.4173   -1.1231 H   0  0
    5.6544    2.5935    1.7970 H   0  0
    6.6937    3.7271    0.9294 H   0  0
    2.4446    3.8438   -0.1449 H   0  0
    3.5485    2.8735   -1.1594 H   0  0
    3.9471    5.6286   -0.8011 H   0  0
    5.0975    4.4779   -1.5573 H   0  0
    5.6788    5.6495   -0.3274 H   0  0
    3.3846    5.4144    1.6236 H   0  0
    5.1161    5.3197    2.0899 H   0  0
    3.9844    4.0115    2.5711 H   0  0
    5.3677    0.7814    2.4023 H   0  0
    6.0321   -0.4178    1.2575 H   0  0
    4.4118   -0.6033    1.9041 H   0  0
    1.4555    2.2885   -2.0078 H   0  0
    0.5649    0.7589   -2.0329 H   0  0
    2.2905    0.7553   -2.2044 H   0  0
    2.7363    0.1889    2.4313 H   0  0
    1.8857   -1.3254    2.4561 H   0  0
    1.0749    0.2076    2.6080 H   0  0
   -2.3657    0.4854    2.2783 H   0  0
   -0.6598    0.5573    2.6030 H   0  0
   -1.4542   -0.9660    2.6658 H   0  0
   -1.9240   -2.6835    2.3930 H   0  0
   -2.6862   -4.1578    1.8439 H   0  0
   -3.6573   -2.6732    2.0404 H   0  0
   -2.7388   -5.3707   -0.8288 H   0  0
   -4.4676   -5.1855   -1.2555 H   0  0
   -3.9627   -5.1335    0.4579 H   0  0
  1  2  1  0
  2  3  1  0
  3  4  1  0
  4  5  1  0
  5  6  1  0
  6  1  1  0
  2  7  2  0
  4  8  1  0
  8  9  1  0
  9 10  1  0
 10 11  1  0
 11  5  1  0
 10 12  1  0
 12 13  1  0
 13 14  1  0
 14 15  1  0
 15 11  1  0
 12 16  1  0
 16 17  1  0
 17 18  1  0
 18 19  1  0
 19 13  1  0
 18 20  1  0
 20 21  1  0
 21 22  1  0
 22 23  1  0
 23 19  1  0
 22 24  1  0
 22 25  1  0
 18 26  1  0
 13 27  1  0
 12 28  1  0
 11 29  1  0
  4 30  1  0
  3 31  1  0
  1 32  1  0
  1 33  1  0
  3 34  1  0
  5 35  1  0
  6 36  1  0
  6 37  1  0
  8 38  1  0
  8 39  1  0
  9 40  1  0
  9 41  1  0
 10 42  1  0
 14 43  1  0
 14 44  1  0
 15 45  1  0
 15 46  1  0
 16 47  1  0
 16 48  1  0
 17 49  1  0
 17 50  1  0
 19 51  1  0
 20 52  1  0
 20 53  1  0
 21 54  1  0
 21 55  1  0
 23 56  1  0
 23 57  1  0
 24 58  1  0
 24 59  1  0
 24 60  1  0
 25 61  1  0
 25 62  1  0
 25 63  1  0
 26 64  1  0
 26 65  1  0
 26 66  1  0
 27 67  1  0
 27 68  1  0
 27 69  1  0
 28 70  1  0
 28 71  1  0
 28 72  1  0
 29 73  1  0
 29 74  1  0
 29 75  1  0
 30 76  1  0
 30 77  1  0
 30 78  1  0
 31 79  1  0
 31 80  1  0
 31 81  1  0
M  END
> <Name>
RCGP2016_S4

> <Clean Energy>
199.724

$$$$
RCGP2016_S5
  SciTegic12132405553D

 83 87  0  0  0  0            999 V2000
   -2.2053   -2.4357    1.0781 C   0  0  1  0  0  0
   -2.3148   -1.0327    0.6497 C   0  0  2  0  0  0
   -0.8567   -3.0274    0.6183 C   0  0
    0.4030   -2.2059    1.0891 C   0  0
    0.2486   -0.7548    0.4455 C   0  0  1  0  0  0
   -1.1161   -0.0093    1.0423 C   0  0  1  0  0  0
    1.6132    0.1616    0.5347 C   0  0  2  0  0  0
    1.3697    1.5121   -0.1600 C   0  0  1  0  0  0
    0.0790    2.2792    0.4657 C   0  0
   -1.2729    1.3635    0.2952 C   0  0
    2.8516   -0.5804   -0.3529 C   0  0
    3.9986    0.4430   -1.1091 C   0  0
    4.3650    1.5787   -0.2876 C   0  0  2  0  0  0
    2.8542    2.4169    0.0885 C   0  0  1  0  0  0
    5.4416    2.5795   -1.0569 C   0  0
    5.4448    3.8160   -0.2261 C   0  0
    4.0598    4.5764   -0.4880 C   0  0
    2.8297    3.5958   -0.7818 C   0  0
    5.1594    0.9397    0.9573 C   0  0
    0.9638    1.3379   -1.7698 C   0  0
   -1.1593    0.3745    2.6138 C   0  0
    2.0613    0.3785    2.0858 C   0  0
   -2.3356   -2.7002    2.6842 C   0  0
    3.8887    5.4690    0.7463 C   0  0
    4.0802    5.4487   -1.7521 C   0  0
   -3.8042   -0.5143    1.1883 C   0  0
   -5.0389   -1.6121    1.0916 C   0  0
   -4.7486   -2.2322   -0.1262 C   0  0  1  0  0  0
   -3.3882   -3.1495    0.1223 C   0  0  2  0  0  0
   -3.6846   -4.5636    0.7134 C   0  0
   -5.7433   -3.0906   -0.6813 O   0  0
   -2.2828   -1.1224   -0.4470 H   0  0
   -0.7957   -4.0800    0.9228 H   0  0
   -0.8281   -2.9651   -0.4781 H   0  0
    0.4977   -2.1514    2.1816 H   0  0
    1.2866   -2.6997    0.6690 H   0  0
    0.0731   -0.9021   -0.6223 H   0  0
    0.2501    2.4774    1.5275 H   0  0
   -0.0556    3.2348   -0.0573 H   0  0
   -2.1643    1.8830    0.6692 H   0  0
   -1.4119    1.1630   -0.7607 H   0  0
    3.2613   -1.3970    0.2570 H   0  0
    2.4156   -1.0177   -1.2608 H   0  0
    4.8627   -0.1433   -1.4468 H   0  0
    3.5433    0.8968   -1.9743 H   0  0
    2.9552    2.7970    1.1127 H   0  0
    6.4009    2.0509   -1.1318 H   0  0
    5.1123    2.8812   -2.0595 H   0  0
    5.4852    3.4539    0.7863 H   0  0
    6.2665    4.5284   -0.3766 H   0  0
    1.9102    4.1921   -0.7329 H   0  0
    2.9288    3.1740   -1.7888 H   0  0
    5.4664    1.7278    1.6517 H   0  0
    6.0534    0.4326    0.5710 H   0  0
    4.5783    0.2223    1.4969 H   0  0
    0.7948    2.3321   -2.2013 H   0  0
    0.0570    0.7531   -1.8913 H   0  0
    1.7288    0.8506   -2.3425 H   0  0
   -2.1233    0.8352    2.8474 H   0  0
   -0.4063    1.0834    2.8652 H   0  0
   -1.0207   -0.4861    3.2306 H   0  0
    2.9381    0.9510    2.1889 H   0  0
    2.2434   -0.6018    2.5411 H   0  0
    1.3316    0.8779    2.6359 H   0  0
   -1.5291   -2.2275    3.2151 H   0  0
   -3.2829   -2.3350    3.0806 H   0  0
   -2.2693   -3.7769    2.8775 H   0  0
    2.9642    6.0538    0.6463 H   0  0
    4.7484    6.1482    0.8253 H   0  0
    3.8321    4.8408    1.6467 H   0  0
    3.1192    5.9727   -1.8460 H   0  0
    4.2394    4.8143   -2.6349 H   0  0
    4.8941    6.1824   -1.6742 H   0  0
   -3.7871   -0.2579    2.2523 H   0  0
   -4.0227    0.3914    0.6088 H   0  0
   -5.9841   -1.0538    1.1132 H   0  0
   -5.0430   -2.3868    1.8660 H   0  0
   -4.5676   -1.3820   -0.8027 H   0  0
   -3.0424   -3.2703   -0.9127 H   0  0
   -2.7575   -5.1493    0.7681 H   0  0
   -4.3997   -5.0795    0.0584 H   0  0
   -4.1227   -4.4749    1.7152 H   0  0
   -5.4211   -3.4512   -1.5445 H   0  0
  1  2  1  0
  1  3  1  0
  3  4  1  0
  4  5  1  0
  5  6  1  0
  6  2  1  0
  5  7  1  0
  7  8  1  0
  8  9  1  0
  9 10  1  0
 10  6  1  0
  7 11  1  0
 11 12  1  0
 12 13  1  0
 13 14  1  0
 14  8  1  0
 13 15  1  0
 15 16  1  0
 16 17  1  0
 17 18  1  0
 18 14  1  0
 13 19  1  0
  8 20  1  0
  6 21  1  0
  7 22  1  0
  1 23  1  0
 17 24  1  0
 17 25  1  0
  2 26  1  0
 26 27  1  0
 27 28  1  0
 28 29  1  0
 29  1  1  0
 29 30  1  0
 28 31  1  0
  2 32  1  0
  3 33  1  0
  3 34  1  0
  4 35  1  0
  4 36  1  0
  5 37  1  0
  9 38  1  0
  9 39  1  0
 10 40  1  0
 10 41  1  0
 11 42  1  0
 11 43  1  0
 12 44  1  0
 12 45  1  0
 14 46  1  0
 15 47  1  0
 15 48  1  0
 16 49  1  0
 16 50  1  0
 18 51  1  0
 18 52  1  0
 19 53  1  0
 19 54  1  0
 19 55  1  0
 20 56  1  0
 20 57  1  0
 20 58  1  0
 21 59  1  0
 21 60  1  0
 21 61  1  0
 22 62  1  0
 22 63  1  0
 22 64  1  0
 23 65  1  0
 23 66  1  0
 23 67  1  0
 24 68  1  0
 24 69  1  0
 24 70  1  0
 25 71  1  0
 25 72  1  0
 25 73  1  0
 26 74  1  0
 26 75  1  0
 27 76  1  0
 27 77  1  0
 28 78  1  0
 29 79  1  0
 30 80  1  0
 30 81  1  0
 30 82  1  0
 31 83  1  0
M  END
> <Name>
RCGP2016_S5

> <Clean Energy>
250.172

$$$$
RCGP2016_S7
  SciTegic12132405553D

 80 83  0  0  0  0            999 V2000
   -6.3836   -2.6925    0.1806 C   0  0
   -5.9978   -4.1291   -0.2557 C   0  0  1  0  0  0
   -4.7929   -4.6359    0.5667 C   0  0
   -3.6245   -3.6838    0.4540 C   0  0
   -3.8820   -2.2057    0.6542 C   0  0  2  0  0  0
   -5.1686   -1.7804   -0.1255 C   0  0
   -2.3947   -4.1819    0.2929 C   0  0
   -1.1779   -3.2953    0.1816 C   0  0
   -1.3667   -1.8829    0.7946 C   0  0  2  0  0  0
   -2.6342   -1.3112    0.1705 C   0  0  2  0  0  0
   -0.1551   -0.9961    0.4205 C   0  0  1  0  0  0
   -0.2804    0.4342    0.8246 C   0  0  1  0  0  0
   -1.5653    0.9963    0.1041 C   0  0
   -2.8325    0.2184    0.5567 C   0  0
   -7.0983   -5.0104   -0.0473 O   0  0
   -4.1402   -2.0377    2.2226 C   0  0
   -0.4154    0.7257    2.4045 C   0  0
    1.2065   -1.4540    1.0076 C   0  0
    2.0634   -0.1432    0.9331 C   0  0
    1.1580    0.9056    0.1788 C   0  0  2  0  0  0
    1.6451    2.4864    0.3012 C   0  0  1  0  0  0
    3.0454    2.8915   -0.3419 C   0  0
    4.3262    2.2376    0.2660 C   0  0
    5.7684    2.6415   -0.3144 C   0  0  1  0  0  0
    6.2267    4.2505   -0.0980 C   0  0
    6.6297    1.5503    0.4931 C   0  0
    8.1368    1.3801    0.1684 C   0  0
    7.6338    4.6035   -0.6455 C   0  0
    5.3716    5.2839   -0.8781 C   0  0
    0.6983    3.4404   -0.4559 C   0  0
   -7.2456   -2.3529   -0.4090 H   0  0
   -6.6421   -2.6731    1.2464 H   0  0
   -5.7343   -4.1120   -1.3221 H   0  0
   -5.1205   -4.6468    1.6150 H   0  0
   -4.4973   -5.6494    0.2650 H   0  0
   -5.4098   -0.7356    0.1029 H   0  0
   -4.9667   -1.8807   -1.2006 H   0  0
   -2.2763   -5.2305    0.1984 H   0  0
   -0.2917   -3.8062    0.5786 H   0  0
   -1.0255   -3.1499   -0.8966 H   0  0
   -1.4689   -1.9076    1.8816 H   0  0
   -2.5024   -1.3823   -0.9176 H   0  0
   -0.0602   -0.9534   -0.6726 H   0  0
   -1.6748    2.0612    0.3111 H   0  0
   -1.4591    0.8392   -0.9783 H   0  0
   -2.9588    0.3301    1.6325 H   0  0
   -3.7177    0.6203    0.0499 H   0  0
   -7.3319   -5.0177    0.9144 H   0  0
   -3.2511   -2.3505    2.7821 H   0  0
   -4.3641   -0.9915    2.4566 H   0  0
   -4.9855   -2.6539    2.5428 H   0  0
    0.4211    0.3146    2.9720 H   0  0
   -1.3357    0.2855    2.7982 H   0  0
   -0.4442    1.8126    2.5578 H   0  0
    1.0946   -1.6256    2.0862 H   0  0
    1.5954   -2.3597    0.5225 H   0  0
    2.0998    0.2150    1.9608 H   0  0
    3.0907   -0.2695    0.5908 H   0  0
    1.1165    0.6272   -0.8826 H   0  0
    1.6638    2.7569    1.3653 H   0  0
    3.0132    2.6796   -1.4191 H   0  0
    3.1243    3.9505   -0.1881 H   0  0
    4.3378    2.4305    1.3470 H   0  0
    4.2328    1.1758    0.0931 H   0  0
    5.8065    2.4066   -1.3867 H   0  0
    6.1863    4.4800    0.9760 H   0  0
    6.5266    1.7604    1.5666 H   0  0
    6.1735    0.5734    0.2809 H   0  0
    8.2565    1.1329   -0.8957 H   0  0
    8.6832    2.2859    0.3986 H   0  0
    8.5425    0.5626    0.7806 H   0  0
    7.8307    5.6680   -0.4550 H   0  0
    7.6603    4.4165   -1.7275 H   0  0
    8.3973    4.0240   -0.1586 H   0  0
    5.4503    5.0814   -1.9548 H   0  0
    4.3414    5.2448   -0.5770 H   0  0
    5.7563    6.2917   -0.6681 H   0  0
    1.0481    4.4730   -0.3201 H   0  0
   -0.3095    3.3617   -0.0714 H   0  0
    0.7088    3.1888   -1.5256 H   0  0
  1  2  1  0
  2  3  1  0
  3  4  1  0
  4  5  1  0
  5  6  1  0
  6  1  1  0
  4  7  2  0
  7  8  1  0
  8  9  1  0
  9 10  1  0
 10  5  1  0
  9 11  1  0
 11 12  1  0
 12 13  1  0
 13 14  1  0
 14 10  1  0
  5 16  1  0
  2 15  1  0
 12 17  1  0
 11 18  1  0
 18 19  1  0
 19 20  1  0
 20 12  1  0
 20 21  1  0
 21 22  1  0
 22 23  1  0
 23 24  1  0
 24 25  1  0
 24 26  1  0
 26 27  1  0
 25 28  1  0
 25 29  1  0
 21 30  1  0
  1 31  1  0
  1 32  1  0
  2 33  1  0
  3 34  1  0
  3 35  1  0
  6 36  1  0
  6 37  1  0
  7 38  1  0
  8 39  1  0
  8 40  1  0
  9 41  1  0
 10 42  1  0
 11 43  1  0
 13 44  1  0
 13 45  1  0
 14 46  1  0
 14 47  1  0
 15 48  1  0
 16 49  1  0
 16 50  1  0
 16 51  1  0
 17 52  1  0
 17 53  1  0
 17 54  1  0
 18 55  1  0
 18 56  1  0
 19 57  1  0
 19 58  1  0
 20 59  1  0
 21 60  1  0
 22 61  1  0
 22 62  1  0
 23 63  1  0
 23 64  1  0
 24 65  1  0
 25 66  1  0
 26 67  1  0
 26 68  1  0
 27 69  1  0
 27 70  1  0
 27 71  1  0
 28 72  1  0
 28 73  1  0
 28 74  1  0
 29 75  1  0
 29 76  1  0
 29 77  1  0
 30 78  1  0
 30 79  1  0
 30 80  1  0
M  END
> <Name>
RCGP2016_S7

> <Clean Energy>
130.043

$$$$
RCGP2016_S8
  SciTegic12132405553D

 82 86  0  0  0  0            999 V2000
   -5.5438   -1.5639   -0.6951 C   0  0
   -5.3366   -2.9660   -0.2591 C   0  0
   -4.0271   -3.5798   -0.5863 C   0  0  1  0  0  0
   -2.9263   -2.7752    0.2168 C   0  0  2  0  0  0
   -3.0448   -1.2199   -0.2793 C   0  0  1  0  0  0
   -4.4999   -0.6783    0.0169 C   0  0
   -1.5147   -3.2608   -0.1885 C   0  0
   -0.3341   -2.4047    0.3992 C   0  0
   -0.4606   -0.9380   -0.1682 C   0  0  1  0  0  0
   -1.8909   -0.2299    0.3137 C   0  0  1  0  0  0
    0.8806   -0.0205    0.1222 C   0  0  2  0  0  0
    0.7105    1.3626   -0.5216 C   0  0  1  0  0  0
   -0.6447    2.0916   -0.0118 C   0  0
   -1.9566    1.1848   -0.3828 C   0  0
    2.2236   -0.7080   -0.6555 C   0  0
    3.4421    0.3573   -1.2148 C   0  0
    3.6999    1.4457   -0.2940 C   0  0  2  0  0  0
    2.1481    2.2573   -0.0538 C   0  0  1  0  0  0
    4.8500    2.4923   -0.8791 C   0  0
    4.7443    3.6810    0.0112 C   0  0
    3.3914    4.4490   -0.3693 C   0  0
    2.2139    3.4813   -0.8570 C   0  0
    0.4965    1.2729   -2.1753 C   0  0
   -2.1310    0.0863    1.8816 C   0  0
    1.1398    0.1134    1.7251 C   0  0
   -3.1462   -3.0597    1.7714 C   0  0
   -4.0675   -5.1164   -0.3331 C   0  0
   -6.2375   -3.6150    0.2831 O   0  0
    3.0686    5.2725    0.8825 C   0  0
    3.5499    5.3890   -1.5738 C   0  0
    4.3449    0.7430    1.0047 C   0  0
    5.5643    0.1104    0.6201 O   0  0
   -5.3198   -1.4945   -1.7687 H   0  0
   -6.5644   -1.2201   -0.4794 H   0  0
   -3.8092   -3.3808   -1.6448 H   0  0
   -2.8867   -1.2407   -1.3660 H   0  0
   -4.6831   -0.6960    1.0977 H   0  0
   -4.6105    0.3474   -0.3531 H   0  0
   -1.4011   -4.3106    0.1079 H   0  0
   -1.4295   -3.1800   -1.2806 H   0  0
   -0.3294   -2.4046    1.4968 H   0  0
    0.5964   -2.8504    0.0325 H   0  0
   -0.5209   -1.0264   -1.2552 H   0  0
   -0.6002    2.2356    1.0713 H   0  0
   -0.7249    3.0723   -0.4981 H   0  0
   -2.8859    1.6905   -0.0927 H   0  0
   -1.9703    1.0359   -1.4556 H   0  0
    2.5677   -1.5557   -0.0476 H   0  0
    1.9006   -1.0960   -1.6305 H   0  0
    3.0871    0.8584   -2.1007 H   0  0
    4.3436   -0.2082   -1.4824 H   0  0
    2.1254    2.5822    0.9937 H   0  0
    5.8174    1.9749   -0.8719 H   0  0
    4.6355    2.8468   -1.8953 H   0  0
    4.6710    3.2638    1.0004 H   0  0
    5.5706    4.4038   -0.0040 H   0  0
    1.2892    4.0710   -0.8842 H   0  0
    2.4336    3.1149   -1.8667 H   0  0
    0.3707    2.2883   -2.5708 H   0  0
   -0.3849    0.6934   -2.4327 H   0  0
    1.3268    0.8185   -2.6800 H   0  0
   -3.1181    0.5413    2.0118 H   0  0
   -1.4139    0.7813    2.2541 H   0  0
   -2.0711   -0.7920    2.4742 H   0  0
    1.9921    0.6836    1.9622 H   0  0
    1.2774   -0.8887    2.1469 H   0  0
    0.3434    0.5790    2.2098 H   0  0
   -2.4014   -2.5594    2.3612 H   0  0
   -3.0536   -4.1324    1.9663 H   0  0
   -4.1410   -2.7221    2.0854 H   0  0
   -3.1005   -5.5651   -0.5956 H   0  0
   -4.8535   -5.5599   -0.9594 H   0  0
   -4.2919   -5.3231    0.7204 H   0  0
    2.1561    5.8583    0.7067 H   0  0
    3.9064    5.9497    1.0976 H   0  0
    2.9141    4.5961    1.7353 H   0  0
    2.6010    5.9135   -1.7510 H   0  0
    3.8172    4.8042   -2.4648 H   0  0
    4.3416    6.1205   -1.3622 H   0  0
    4.5582    1.4947    1.7707 H   0  0
    3.7076   -0.0019    1.4302 H   0  0
    5.9757   -0.3165    1.4102 H   0  0
 31 32  1  0
 17 31  1  0
  1  2  1  0
  2  3  1  0
  3  4  1  0
  4  5  1  0
  5  6  1  0
  6  1  1  0
  4  7  1  0
  7  8  1  0
  8  9  1  0
  9 10  1  0
 10  5  1  0
  9 11  1  0
 11 12  1  0
 12 13  1  0
 13 14  1  0
 14 10  1  0
 11 15  1  0
 15 16  1  0
 16 17  1  0
 17 18  1  0
 18 12  1  0
 17 19  1  0
 19 20  1  0
 20 21  1  0
 21 22  1  0
 22 18  1  0
 12 23  1  0
 10 24  1  0
 11 25  1  0
  4 26  1  0
  3 27  1  0
  2 28  2  0
 21 29  1  0
 21 30  1  0
  1 33  1  0
  1 34  1  0
  3 35  1  0
  5 36  1  0
  6 37  1  0
  6 38  1  0
  7 39  1  0
  7 40  1  0
  8 41  1  0
  8 42  1  0
  9 43  1  0
 13 44  1  0
 13 45  1  0
 14 46  1  0
 14 47  1  0
 15 48  1  0
 15 49  1  0
 16 50  1  0
 16 51  1  0
 18 52  1  0
 19 53  1  0
 19 54  1  0
 20 55  1  0
 20 56  1  0
 22 57  1  0
 22 58  1  0
 23 59  1  0
 23 60  1  0
 23 61  1  0
 24 62  1  0
 24 63  1  0
 24 64  1  0
 25 65  1  0
 25 66  1  0
 25 67  1  0
 26 68  1  0
 26 69  1  0
 26 70  1  0
 27 71  1  0
 27 72  1  0
 27 73  1  0
 29 74  1  0
 29 75  1  0
 29 76  1  0
 30 77  1  0
 30 78  1  0
 30 79  1  0
 31 80  1  0
 31 81  1  0
 32 82  1  0
M  END
> <Name>
RCGP2016_S8

> <Clean Energy>
199.147

$$$$
RCGP2016_S9
  SciTegic12132405553D

 82 86  0  0  0  0            999 V2000
   -5.5607   -1.4275   -0.4727 C   0  0
   -5.4303   -2.8548   -0.0921 C   0  0
   -4.1628   -3.5302   -0.4604 C   0  0  1  0  0  0
   -3.0076   -2.8216    0.3565 C   0  0  2  0  0  0
   -3.0412   -1.2443   -0.0796 C   0  0  1  0  0  0
   -4.4586   -0.6313    0.2570 C   0  0
   -1.6316   -3.3721   -0.0866 C   0  0
   -0.3963   -2.6087    0.5160 C   0  0
   -0.4438   -1.1165    0.0057 C   0  0  1  0  0  0
   -1.8246   -0.3459    0.5338 C   0  0  1  0  0  0
    0.9519   -0.2901    0.3117 C   0  0  2  0  0  0
    0.8555    1.1241   -0.2772 C   0  0  1  0  0  0
   -0.4487    1.9103    0.2785 C   0  0
   -1.8158    1.0959   -0.1083 C   0  0
    2.2435   -1.0235   -0.5090 C   0  0
    3.5150   -0.0089   -1.0448 C   0  0
    3.8446    1.0290   -0.0897 C   0  0  2  0  0  0
    2.3487    1.9148    0.2045 C   0  0  1  0  0  0
    5.0532    2.0243   -0.6482 C   0  0
    5.0347    3.1759    0.2933 C   0  0  2  0  0  0
    3.7162    4.0324   -0.0406 C   0  0
    2.4792    3.1566   -0.5487 C   0  0
    4.4634    0.2415    1.1690 C   0  0
    0.6172    1.1108   -1.9300 C   0  0
   -2.0274   -0.0763    2.1156 C   0  0
    1.2373   -0.2333    1.9150 C   0  0
   -3.2250   -3.1520    1.9023 C   0  0
   -4.2896   -5.0705   -0.2641 C   0  0
   -6.3608   -3.4707    0.4384 O   0  0
    3.4579    4.8297    1.2432 C   0  0
    3.9095    5.0038   -1.2170 C   0  0
    6.1318    4.0836    0.2472 O   0  0
   -5.3459   -1.3303   -1.5460 H   0  0
   -6.5570   -1.0338   -0.2299 H   0  0
   -3.9464   -3.3041   -1.5137 H   0  0
   -2.8974   -1.2328   -1.1684 H   0  0
   -4.6298   -0.6794    1.3389 H   0  0
   -4.5137    0.4125   -0.0729 H   0  0
   -1.5758   -4.4373    0.1687 H   0  0
   -1.5549   -3.2549   -1.1760 H   0  0
   -0.3786   -2.6508    1.6127 H   0  0
    0.5022   -3.0931    0.1198 H   0  0
   -0.5219   -1.1597   -1.0829 H   0  0
   -0.3833    2.0098    1.3655 H   0  0
   -0.4770    2.9120   -0.1694 H   0  0
   -2.7105    1.6431    0.2136 H   0  0
   -1.8507    0.9893   -1.1855 H   0  0
    2.5448   -1.9120    0.0622 H   0  0
    1.8877   -1.3551   -1.4934 H   0  0
    4.3808   -0.6143   -1.3420 H   0  0
    3.1801    0.5430   -1.9082 H   0  0
    2.3573    2.1997    1.2638 H   0  0
    5.9745    1.4273   -0.6493 H   0  0
    4.8832    2.4367   -1.6509 H   0  0
    4.9793    2.7303    1.2717 H   0  0
    1.5915    3.8010   -0.5417 H   0  0
    2.6658    2.8172   -1.5744 H   0  0
    4.7306    0.9478    1.9606 H   0  0
    5.3682   -0.2834    0.8351 H   0  0
    3.7915   -0.4831    1.5769 H   0  0
    0.5467    2.1464   -2.2850 H   0  0
   -0.2996    0.5939   -2.1968 H   0  0
    1.4135    0.6286   -2.4630 H   0  0
   -2.0119   -0.9785    2.6740 H   0  0
   -1.2667    0.5614    2.5038 H   0  0
   -2.9847    0.4298    2.2764 H   0  0
    2.1242    0.2768    2.1617 H   0  0
    1.3209   -1.2572    2.2966 H   0  0
    0.4752    0.2587    2.4280 H   0  0
   -2.4455   -2.7183    2.4998 H   0  0
   -3.1928   -4.2349    2.0557 H   0  0
   -4.1948   -2.7697    2.2427 H   0  0
   -3.3535   -5.5640   -0.5567 H   0  0
   -5.1074   -5.4438   -0.8953 H   0  0
   -4.5130   -5.3038    0.7841 H   0  0
    2.5782    5.4720    1.1010 H   0  0
    4.3354    5.4508    1.4688 H   0  0
    3.2761    4.1341    2.0748 H   0  0
    2.9884    5.5847   -1.3610 H   0  0
    4.1308    4.4359   -2.1311 H   0  0
    4.7426    5.6845   -0.9959 H   0  0
    6.9680    3.5949    0.4418 H   0  0
  1  2  1  0
  2  3  1  0
  3  4  1  0
  4  5  1  0
  5  6  1  0
  6  1  1  0
  4  7  1  0
  7  8  1  0
  8  9  1  0
  9 10  1  0
 10  5  1  0
  9 11  1  0
 11 12  1  0
 12 13  1  0
 13 14  1  0
 14 10  1  0
 11 15  1  0
 15 16  1  0
 16 17  1  0
 17 18  1  0
 18 12  1  0
 17 19  1  0
 19 20  1  0
 20 21  1  0
 21 22  1  0
 22 18  1  0
 17 23  1  0
 12 24  1  0
 10 25  1  0
 11 26  1  0
  4 27  1  0
  3 28  1  0
  2 29  2  0
 21 30  1  0
 21 31  1  0
 20 32  1  0
  1 33  1  0
  1 34  1  0
  3 35  1  0
  5 36  1  0
  6 37  1  0
  6 38  1  0
  7 39  1  0
  7 40  1  0
  8 41  1  0
  8 42  1  0
  9 43  1  0
 13 44  1  0
 13 45  1  0
 14 46  1  0
 14 47  1  0
 15 48  1  0
 15 49  1  0
 16 50  1  0
 16 51  1  0
 18 52  1  0
 19 53  1  0
 19 54  1  0
 20 55  1  0
 22 56  1  0
 22 57  1  0
 23 58  1  0
 23 59  1  0
 23 60  1  0
 24 61  1  0
 24 62  1  0
 24 63  1  0
 25 64  1  0
 25 65  1  0
 25 66  1  0
 26 67  1  0
 26 68  1  0
 26 69  1  0
 27 70  1  0
 27 71  1  0
 27 72  1  0
 28 73  1  0
 28 74  1  0
 28 75  1  0
 30 76  1  0
 30 77  1  0
 30 78  1  0
 31 79  1  0
 31 80  1  0
 31 81  1  0
 32 82  1  0
M  END
> <Name>
RCGP2016_S9

> <Clean Energy>
200.212

$$$$
RCGP2016_S10
  SciTegic12132405553D

 84 87  0  0  0  0            999 V2000
   -4.3151   -1.4733   -1.2813 C   0  0
   -2.4032   -4.2111   -1.1590 C   0  0
   -1.5143   -3.2757   -0.2039 C   0  0  2  0  0  0
   -1.6419   -1.6359   -0.6481 C   0  0  1  0  0  0
   -3.1152   -0.9151   -0.4877 C   0  0
   -0.0278   -3.6687   -0.4437 C   0  0
    1.0366   -2.8213    0.3110 C   0  0
    0.9550   -1.3471   -0.1918 C   0  0  1  0  0  0
   -0.5321   -0.6708    0.1459 C   0  0  1  0  0  0
    2.2526   -0.4465    0.3111 C   0  0  2  0  0  0
    2.1611    0.9658   -0.2736 C   0  0  1  0  0  0
    0.7560    1.6687    0.1015 C   0  0
   -0.4963    0.7917   -0.4764 C   0  0
    3.6872   -1.0946   -0.3305 C   0  0
    4.9627   -0.0040   -0.6744 C   0  0
    5.0981    1.0294    0.3288 C   0  0  2  0  0  0
    3.5252    1.8308    0.4160 C   0  0  1  0  0  0
    6.3084    2.1007   -0.0443 C   0  0
    6.0853    3.2389    0.8894 C   0  0
    4.7895    4.0315    0.3804 C   0  0
    3.6868    3.0957   -0.3058 C   0  0
    5.5807    0.2517    1.6522 C   0  0
    2.1552    0.9646   -1.9440 C   0  0
   -0.9539   -0.4390    1.6908 C   0  0
    2.3133   -0.3978    1.9401 C   0  0
   -1.9370   -3.6054    1.2765 C   0  0
    4.3059    4.7868    1.6237 C   0  0
    5.0975    5.0354   -0.7407 C   0  0
   -2.2706   -5.7547   -0.9266 C   0  0
   -5.5088   -0.6256   -0.9793 C   0  0
   -5.8238   -0.3995    0.1941 O   0  0
   -6.2606   -0.0894   -2.0173 O   0  0
   -4.1117   -1.4815   -2.3610 H   0  0
   -4.5136   -2.4740   -0.9189 H   0  0
   -3.4410   -3.9705   -1.0294 H   0  0
   -2.1098   -4.0066   -2.1976 H   0  0
   -1.3484   -1.6056   -1.7060 H   0  0
   -3.3937   -0.9200    0.5715 H   0  0
   -3.0218    0.1168   -0.8247 H   0  0
    0.1064   -4.7191   -0.1685 H   0  0
    0.1868   -3.5435   -1.5138 H   0  0
    0.9098   -2.8768    1.4000 H   0  0
    2.0125   -3.2339    0.0390 H   0  0
    1.0302   -1.3781   -1.2812 H   0  0
    0.6642    1.7547    1.1880 H   0  0
    0.7347    2.6741   -0.3382 H   0  0
   -1.4472    1.2973   -0.2765 H   0  0
   -0.3778    0.7012   -1.5490 H   0  0
    3.9566   -1.9746    0.2690 H   0  0
    3.4900   -1.4289   -1.3576 H   0  0
    5.8936   -0.5563   -0.8555 H   0  0
    4.7198    0.5460   -1.5695 H   0  0
    3.3705    2.1000    1.4681 H   0  0
    7.2678    1.5771    0.0592 H   0  0
    6.2253    2.5123   -1.0583 H   0  0
    6.9041    3.9584    1.0201 H   0  0
    5.8866    2.7685    1.8367 H   0  0
    2.7710    3.6892   -0.4180 H   0  0
    4.0338    2.7834   -1.2979 H   0  0
    5.6955    0.9568    2.4812 H   0  0
    6.5513   -0.2163    1.4413 H   0  0
    4.9006   -0.5164    1.9545 H   0  0
    2.0762    1.9999   -2.2976 H   0  0
    1.3151    0.4023   -2.3398 H   0  0
    3.0436    0.5352   -2.3650 H   0  0
   -0.9655   -1.3492    2.2349 H   0  0
   -0.2843    0.2265    2.1809 H   0  0
   -1.9455    0.0180    1.7360 H   0  0
    1.4622    0.0443    2.3473 H   0  0
    2.4016   -1.4208    2.3230 H   0  0
    3.1283    0.1560    2.3099 H   0  0
   -1.3348   -3.0736    1.9781 H   0  0
   -1.8046   -4.6719    1.4750 H   0  0
   -2.9928   -3.3381    1.4199 H   0  0
    3.4214    5.3845    1.3645 H   0  0
    5.1067    5.4484    1.9810 H   0  0
    4.0457    4.0655    2.4115 H   0  0
    4.1773    5.5721   -1.0090 H   0  0
    5.4789    4.4993   -1.6207 H   0  0
    5.8530    5.7515   -0.3897 H   0  0
   -2.9208   -6.2783   -1.6409 H   0  0
   -2.5803   -6.0151    0.0930 H   0  0
   -1.2335   -6.0759   -1.0867 H   0  0
   -7.0064    0.4419   -1.6429 H   0  0
  2  3  1  0
  3  4  1  0
  4  5  1  0
  5  1  1  0
  3  6  1  0
  6  7  1  0
  7  8  1  0
  8  9  1  0
  9  4  1  0
  8 10  1  0
 10 11  1  0
 11 12  1  0
 12 13  1  0
 13  9  1  0
 10 14  1  0
 14 15  1  0
 15 16  1  0
 16 17  1  0
 17 11  1  0
 16 18  1  0
 18 19  1  0
 19 20  1  0
 20 21  1  0
 21 17  1  0
 16 22  1  0
 11 23  1  0
  9 24  1  0
 10 25  1  0
  3 26  1  0
 20 27  1  0
 20 28  1  0
  2 29  1  0
  1 30  1  0
 30 31  2  0
 30 32  1  0
  1 33  1  0
  1 34  1  0
  2 35  1  0
  2 36  1  0
  4 37  1  0
  5 38  1  0
  5 39  1  0
  6 40  1  0
  6 41  1  0
  7 42  1  0
  7 43  1  0
  8 44  1  0
 12 45  1  0
 12 46  1  0
 13 47  1  0
 13 48  1  0
 14 49  1  0
 14 50  1  0
 15 51  1  0
 15 52  1  0
 17 53  1  0
 18 54  1  0
 18 55  1  0
 19 56  1  0
 19 57  1  0
 21 58  1  0
 21 59  1  0
 22 60  1  0
 22 61  1  0
 22 62  1  0
 23 63  1  0
 23 64  1  0
 23 65  1  0
 24 66  1  0
 24 67  1  0
 24 68  1  0
 25 69  1  0
 25 70  1  0
 25 71  1  0
 26 72  1  0
 26 73  1  0
 26 74  1  0
 27 75  1  0
 27 76  1  0
 27 77  1  0
 28 78  1  0
 28 79  1  0
 28 80  1  0
 29 81  1  0
 29 82  1  0
 29 83  1  0
 32 84  1  0
M  END
> <Name>
RCGP2016_S10

> <Clean Energy>
198.564

$$$$
RCGP2016_S11
  SciTegic12132405553D

 82 86  0  0  0  0            999 V2000
   -2.6848   -3.4381    0.2336 C   0  0  1  0  0  0
   -2.6455   -1.8461   -0.1450 C   0  0  2  0  0  0
   -1.3036   -4.0173   -0.1530 C   0  0
   -0.0813   -3.3162    0.5445 C   0  0
   -0.0544   -1.8062    0.0881 C   0  0  1  0  0  0
   -1.4384   -1.0100    0.5673 C   0  0  1  0  0  0
    1.3465   -1.0371    0.5011 C   0  0  2  0  0  0
    1.3266    0.3997   -0.0393 C   0  0  1  0  0  0
    0.0178    1.2077    0.4720 C   0  0
   -1.3493    0.4524   -0.0195 C   0  0
    2.6591   -1.7831   -0.2743 C   0  0
    3.9900   -0.7931   -0.6998 C   0  0
    4.2974    0.1956    0.3118 C   0  0  2  0  0  0
    2.8127    1.1240    0.5529 C   0  0  1  0  0  0
    5.5603    1.1713   -0.1406 C   0  0
    5.5176    2.2966    0.8344 C   0  0
    4.2569    3.2116    0.4598 C   0  0  1  0  0  0
    3.0226    2.3941   -0.1487 C   0  0
    4.8199   -0.6582    1.5712 C   0  0
    1.1822    0.4524   -1.7019 C   0  0
   -1.7215   -0.7899    2.1445 C   0  0
    1.5430   -1.0463    2.1186 C   0  0
   -2.9988   -3.8154    1.7518 C   0  0
    3.9378    3.9512    1.7722 C   0  0
   -4.0602   -1.1995    0.1355 C   0  0
   -5.1434   -1.9330   -0.6828 C   0  0
   -5.0783   -3.3764   -0.3486 C   0  0
   -3.8134   -4.0794   -0.6713 C   0  0  2  0  0  0
   -3.9981   -5.6207   -0.5393 C   0  0
   -6.0556   -3.9799    0.1068 O   0  0
    4.5552    4.2156   -0.6923 C   0  0
    5.6750    5.0708   -0.3827 O   0  0
   -2.4405   -1.8010   -1.2230 H   0  0
   -1.2948   -5.0920    0.0654 H   0  0
   -1.1621   -3.8642   -1.2315 H   0  0
   -0.1267   -3.3975    1.6382 H   0  0
    0.8228   -3.8154    0.1809 H   0  0
   -0.0724   -1.8083   -1.0040 H   0  0
    0.0249    1.2666    1.5640 H   0  0
    0.0454    2.2250    0.0607 H   0  0
   -2.2436    1.0168    0.2725 H   0  0
   -1.3267    0.3850   -1.1003 H   0  0
    2.8997   -2.7011    0.2788 H   0  0
    2.3492   -2.0671   -1.2887 H   0  0
    4.8516   -1.4157   -0.9724 H   0  0
    3.7216   -0.1981   -1.5579 H   0  0
    2.7696    1.3700    1.6209 H   0  0
    6.4757    0.5655   -0.1325 H   0  0
    5.4277    1.6177   -1.1341 H   0  0
    5.3602    1.8166    1.7846 H   0  0
    6.4046    2.9393    0.9092 H   0  0
    2.1554    3.0658   -0.1666 H   0  0
    3.2563    2.0852   -1.1744 H   0  0
    5.0642    0.0100    2.4026 H   0  0
    5.7253   -1.2001    1.2675 H   0  0
    4.1036   -1.3747    1.9135 H   0  0
    1.1633    1.5015   -2.0218 H   0  0
    0.2667   -0.0249   -2.0382 H   0  0
    1.9925   -0.0362   -2.2073 H   0  0
   -2.6703   -0.2589    2.2709 H   0  0
   -0.9647   -0.1915    2.5973 H   0  0
   -1.7650   -1.7113    2.6691 H   0  0
    1.5736   -2.0853    2.4660 H   0  0
    2.4302   -0.5745    2.4325 H   0  0
    0.7687   -0.5482    2.6069 H   0  0
   -3.0084   -4.9036    1.8667 H   0  0
   -3.9740   -3.4140    2.0523 H   0  0
   -2.2412   -3.4287    2.4071 H   0  0
    3.6866    3.2191    2.5527 H   0  0
    3.0856    4.6251    1.6111 H   0  0
    4.8150    4.5337    2.0844 H   0  0
   -4.0647   -0.1435   -0.1581 H   0  0
   -4.2933   -1.2801    1.2038 H   0  0
   -6.1392   -1.5159   -0.4808 H   0  0
   -4.8657   -1.8053   -1.7383 H   0  0
   -3.5313   -3.8235   -1.7020 H   0  0
   -3.0626   -6.1339   -0.7979 H   0  0
   -4.7902   -5.9447   -1.2279 H   0  0
   -4.2871   -5.8833    0.4856 H   0  0
    3.6645    4.8323   -0.8736 H   0  0
    4.7929    3.6469   -1.6019 H   0  0
    5.4817    5.6408    0.3974 H   0  0
 31 32  1  0
 17 31  1  0
  1  2  1  0
  1  3  1  0
  3  4  1  0
  4  5  1  0
  5  6  1  0
  6  2  1  0
  5  7  1  0
  7  8  1  0
  8  9  1  0
  9 10  1  0
 10  6  1  0
  7 11  1  0
 11 12  1  0
 12 13  1  0
 13 14  1  0
 14  8  1  0
 13 15  1  0
 15 16  1  0
 16 17  1  0
 17 18  1  0
 18 14  1  0
 13 19  1  0
  8 20  1  0
  6 21  1  0
  7 22  1  0
  1 23  1  0
 17 24  1  0
  2 25  1  0
 25 26  1  0
 26 27  1  0
 27 28  1  0
 28  1  1  0
 28 29  1  0
 27 30  2  0
  2 33  1  0
  3 34  1  0
  3 35  1  0
  4 36  1  0
  4 37  1  0
  5 38  1  0
  9 39  1  0
  9 40  1  0
 10 41  1  0
 10 42  1  0
 11 43  1  0
 11 44  1  0
 12 45  1  0
 12 46  1  0
 14 47  1  0
 15 48  1  0
 15 49  1  0
 16 50  1  0
 16 51  1  0
 18 52  1  0
 18 53  1  0
 19 54  1  0
 19 55  1  0
 19 56  1  0
 20 57  1  0
 20 58  1  0
 20 59  1  0
 21 60  1  0
 21 61  1  0
 21 62  1  0
 22 63  1  0
 22 64  1  0
 22 65  1  0
 23 66  1  0
 23 67  1  0
 23 68  1  0
 24 69  1  0
 24 70  1  0
 24 71  1  0
 25 72  1  0
 25 73  1  0
 26 74  1  0
 26 75  1  0
 28 76  1  0
 29 77  1  0
 29 78  1  0
 29 79  1  0
 31 80  1  0
 31 81  1  0
 32 82  1  0
M  END
> <Name>
RCGP2016_S11

> <Clean Energy>
200.103

$$$$
RCGP2016_S12
  SciTegic12132405553D

 84 88  0  0  0  0            999 V2000
   -3.0997   -4.5149    1.0714 C   0  0  1  0  0  0
   -3.1994   -3.0972    1.4512 C   0  0  2  0  0  0
   -1.6188   -4.9240    0.9315 C   0  0
   -0.7444   -4.6314    2.2095 C   0  0
   -0.8078   -3.0538    2.4353 C   0  0  1  0  0  0
   -2.3745   -2.5866    2.7540 C   0  0  1  0  0  0
    0.2986   -2.4911    3.5165 C   0  0  2  0  0  0
    0.1854   -0.9607    3.6159 C   0  0  1  0  0  0
   -1.3273   -0.4991    3.9965 C   0  0
   -2.3908   -1.0194    2.8592 C   0  0
    1.8617   -2.7857    2.9313 C   0  0
    3.0830   -1.6586    3.3482 C   0  0
    2.9672   -1.1859    4.7127 C   0  0  2  0  0  0
    1.3419   -0.5063    4.8578 C   0  0  1  0  0  0
    4.1309   -0.0648    5.0827 C   0  0
    3.6665    0.5291    6.3651 C   0  0
    2.4113    1.4786    6.0326 C   0  0  1  0  0  0
    1.5164    0.9479    4.8167 C   0  0
    3.2882   -2.4776    5.6175 C   0  0
    0.4559   -0.2043    2.1525 C   0  0
   -3.0659   -3.0945    4.1261 C   0  0
    0.0841   -3.1855    4.9745 C   0  0
   -3.8078   -5.5751    2.0917 C   0  0
    1.6743    1.5933    7.3719 C   0  0
   -4.8310   -2.7750    1.5572 C   0  0
   -5.7943   -3.5012    0.4242 C   0  0
   -4.9858   -3.4083   -0.7113 C   0  0  1  0  0  0
   -3.7291   -4.4683   -0.4854 C   0  0  2  0  0  0
   -4.0623   -5.9345   -0.9053 C   0  0
   -5.5807   -3.7179   -1.9701 O   0  0
    2.7955    2.8954    5.5308 C   0  0
    3.6018    3.5935    6.4960 O   0  0
   -2.7363   -2.5934    0.5889 H   0  0
   -1.5567   -5.9761    0.6256 H   0  0
   -1.1766   -4.2925    0.1489 H   0  0
   -1.0859   -5.1773    3.0989 H   0  0
    0.2843   -4.9253    1.9719 H   0  0
   -0.5389   -2.5895    1.4840 H   0  0
   -1.6040   -0.9168    4.9685 H   0  0
   -1.3608    0.5963    4.0576 H   0  0
   -3.4119   -0.6784    3.0727 H   0  0
   -2.0868   -0.6104    1.9027 H   0  0
    2.0971   -3.8427    3.1154 H   0  0
    1.8645   -2.6192    1.8460 H   0  0
    4.0728   -2.0717    3.1161 H   0  0
    2.9472   -0.7646    2.7614 H   0  0
    0.9943   -0.7426    5.8712 H   0  0
    5.0989   -0.5815    5.1170 H   0  0
    4.1833    0.7617    4.3620 H   0  0
    3.3499   -0.3160    6.9510 H   0  0
    4.3945    1.1052    6.9489 H   0  0
    0.5850    1.5275    4.8134 H   0  0
    2.0455    1.1168    3.8714 H   0  0
    3.2083   -2.2225    6.6786 H   0  0
    4.3150   -2.8016    5.4021 H   0  0
    2.6327   -3.2985    5.4177 H   0  0
    0.3510    0.8790    2.2897 H   0  0
   -0.2582   -0.5248    1.3999 H   0  0
    1.4342   -0.3979    1.7573 H   0  0
   -4.0922   -2.7198    4.1745 H   0  0
   -2.5574   -2.7209    4.9832 H   0  0
   -3.0761   -4.1605    4.1877 H   0  0
    0.1902   -4.2712    4.8676 H   0  0
    0.7791   -2.8619    5.6952 H   0  0
   -0.8545   -2.9738    5.3725 H   0  0
   -3.6952   -6.5890    1.6913 H   0  0
   -4.8705   -5.3690    2.2187 H   0  0
   -3.3304   -5.5543    3.0547 H   0  0
    1.3539    0.5940    7.6994 H   0  0
    0.7951    2.2402    7.2484 H   0  0
    2.3493    2.0271    8.1224 H   0  0
   -4.9138   -1.6817    1.5168 H   0  0
   -5.2563   -3.1273    2.5023 H   0  0
   -6.7332   -2.9342    0.3718 H   0  0
   -6.0060   -4.5623    0.5952 H   0  0
   -4.6590   -2.3565   -0.7000 H   0  0
   -2.9990   -4.0600   -1.1965 H   0  0
   -3.1663   -6.5630   -0.8168 H   0  0
   -4.4031   -5.9362   -1.9495 H   0  0
   -4.8602   -6.3414   -0.2720 H   0  0
   -4.9103   -3.5993   -2.6881 H   0  0
    1.8731    3.4676    5.3613 H   0  0
    3.3497    2.8113    4.5857 H   0  0
    4.4578    3.1263    6.6376 H   0  0
 31 32  1  0
 17 31  1  0
  1  2  1  0
  1  3  1  0
  3  4  1  0
  4  5  1  0
  5  6  1  0
  6  2  1  0
  5  7  1  0
  7  8  1  0
  8  9  1  0
  9 10  1  0
 10  6  1  0
  7 11  1  0
 11 12  1  0
 12 13  1  0
 13 14  1  0
 14  8  1  0
 13 15  1  0
 15 16  1  0
 16 17  1  0
 17 18  1  0
 18 14  1  0
 13 19  1  0
  8 20  1  0
  6 21  1  0
  7 22  1  0
  1 23  1  0
 17 24  1  0
  2 25  1  0
 25 26  1  0
 26 27  1  0
 27 28  1  0
 28  1  1  0
 28 29  1  0
 27 30  1  0
  2 33  1  0
  3 34  1  0
  3 35  1  0
  4 36  1  0
  4 37  1  0
  5 38  1  0
  9 39  1  0
  9 40  1  0
 10 41  1  0
 10 42  1  0
 11 43  1  0
 11 44  1  0
 12 45  1  0
 12 46  1  0
 14 47  1  0
 15 48  1  0
 15 49  1  0
 16 50  1  0
 16 51  1  0
 18 52  1  0
 18 53  1  0
 19 54  1  0
 19 55  1  0
 19 56  1  0
 20 57  1  0
 20 58  1  0
 20 59  1  0
 21 60  1  0
 21 61  1  0
 21 62  1  0
 22 63  1  0
 22 64  1  0
 22 65  1  0
 23 66  1  0
 23 67  1  0
 23 68  1  0
 24 69  1  0
 24 70  1  0
 24 71  1  0
 25 72  1  0
 25 73  1  0
 26 74  1  0
 26 75  1  0
 27 76  1  0
 28 77  1  0
 29 78  1  0
 29 79  1  0
 29 80  1  0
 30 81  1  0
 31 82  1  0
 31 83  1  0
 32 84  1  0
M  END
> <Name>
RCGP2016_S12

> <Clean Energy>
250.107

$$$$
RCGP2016_S15
  SciTegic12132405553D

 85 89  0  0  0  0            999 V2000
   -3.0841   -4.0240    0.6653 C   0  0  1  0  0  0
   -3.0332   -2.5694    0.4323 C   0  0  2  0  0  0
   -1.7489   -4.6743    0.2460 C   0  0
   -0.4808   -4.0485    0.9398 C   0  0
   -0.4452   -2.5132    0.5060 C   0  0  1  0  0  0
   -1.7994   -1.7273    1.0780 C   0  0  1  0  0  0
    0.9741   -1.7593    0.8617 C   0  0  2  0  0  0
    0.9241   -0.3053    0.3672 C   0  0  1  0  0  0
   -0.3585    0.4879    0.9732 C   0  0
   -1.7575   -0.2543    0.5327 C   0  0
    2.2379   -2.4804   -0.0109 C   0  0
    3.5463   -1.4731   -0.4785 C   0  0
    3.9125   -0.5211    0.5512 C   0  0  2  0  0  0
    2.4415    0.3962    0.9063 C   0  0  1  0  0  0
    5.1507    0.4795    0.0725 C   0  0
    5.1591    1.5590    1.1003 C   0  0
    3.8802    2.4856    0.8379 C   0  0  1  0  0  0
    2.6156    1.6945    0.2518 C   0  0
    0.6883   -0.1970   -1.2806 C   0  0
   -1.9802   -1.5568    2.6782 C   0  0
    1.2640   -1.8208    2.4653 C   0  0
   -3.3975   -4.4865    2.2000 C   0  0
    3.6269    3.1561    2.2022 C   0  0
   -4.5218   -1.9872    0.9024 C   0  0
   -5.8260   -2.9405    0.5431 C   0  0
   -5.4668   -3.4241   -0.7181 C   0  0  1  0  0  0
   -4.2198   -4.4915   -0.4799 C   0  0  2  0  0  0
   -4.6913   -5.9358   -0.1164 C   0  0
   -6.4693   -4.1054   -1.4705 O   0  0
    4.5025   -1.4273    1.7481 C   0  0
    5.6548   -2.1182    1.2677 O   0  0
    4.1198    3.5484   -0.2729 C   0  0
    5.2532    4.3903    0.0265 O   0  0
   -2.8968   -2.5142   -0.6586 H   0  0
   -1.8053   -5.7594    0.4013 H   0  0
   -1.6051   -4.4683   -0.8233 H   0  0
   -0.4956   -4.1542    2.0324 H   0  0
    0.3980   -4.5627    0.5340 H   0  0
   -0.5183   -2.4897   -0.5841 H   0  0
   -0.2909    0.5129    2.0636 H   0  0
   -0.3515    1.5178    0.5931 H   0  0
   -1.7957   -0.2886   -0.5504 H   0  0
   -2.6373    0.2935    0.8934 H   0  0
    1.8704   -2.7310   -1.0148 H   0  0
    2.5079   -3.4157    0.4977 H   0  0
    3.2304   -0.8472   -1.2974 H   0  0
    4.3889   -2.0854   -0.8239 H   0  0
    2.4542    0.5997    1.9833 H   0  0
    6.0667   -0.1202    0.0035 H   0  0
    4.9641    0.9698   -0.8914 H   0  0
    5.0526    1.0341    2.0328 H   0  0
    6.0481    2.2005    1.1596 H   0  0
    1.7492    2.3647    0.3105 H   0  0
    2.7949    1.4333   -0.7982 H   0  0
    0.6542    0.8624   -1.5633 H   0  0
   -0.2457   -0.6628   -1.5809 H   0  0
    1.4685   -0.6687   -1.8463 H   0  0
   -1.9813   -2.5006    3.1749 H   0  0
   -1.2018   -0.9657    3.1006 H   0  0
   -2.9216   -1.0394    2.8829 H   0  0
    0.5230   -1.3388    3.0138 H   0  0
    1.3117   -2.8707    2.7757 H   0  0
    2.1685   -1.3611    2.7432 H   0  0
   -3.4398   -5.5803    2.2453 H   0  0
   -4.3467   -4.0879    2.5583 H   0  0
   -2.6128   -4.1681    2.8618 H   0  0
    2.7667    3.8339    2.1200 H   0  0
    3.4166    2.3834    2.9558 H   0  0
    4.5179    3.7249    2.4999 H   0  0
   -4.6046   -0.9960    0.4388 H   0  0
   -4.5931   -1.8768    1.9887 H   0  0
   -5.9726   -3.8045    1.2002 H   0  0
   -6.7193   -2.3021    0.5568 H   0  0
   -5.1487   -2.5156   -1.2531 H   0  0
   -3.7839   -4.5102   -1.4871 H   0  0
   -3.8264   -6.6101   -0.0603 H   0  0
   -5.3776   -6.2927   -0.8959 H   0  0
   -5.2191   -5.9351    0.8457 H   0  0
   -6.0937   -4.3827   -2.3427 H   0  0
    3.8036   -2.1567    2.0979 H   0  0
    4.7914   -0.7935    2.5916 H   0  0
    6.0327   -2.6707    1.9939 H   0  0
    3.2206    4.1708   -0.3768 H   0  0
    4.3125    3.0293   -1.2215 H   0  0
    5.0982    4.9178    0.8448 H   0  0
 30 31  1  0
 13 30  1  0
 32 33  1  0
 17 32  1  0
  1  2  1  0
  1  3  1  0
  3  4  1  0
  4  5  1  0
  5  6  1  0
  6  2  1  0
  5  7  1  0
  7  8  1  0
  8  9  1  0
  9 10  1  0
 10  6  1  0
  7 11  1  0
 11 12  1  0
 12 13  1  0
 13 14  1  0
 14  8  1  0
 13 15  1  0
 15 16  1  0
 16 17  1  0
 17 18  1  0
 18 14  1  0
  8 19  1  0
  6 20  1  0
  7 21  1  0
  1 22  1  0
 17 23  1  0
  2 24  1  0
 24 25  1  0
 25 26  1  0
 26 27  1  0
 27  1  1  0
 27 28  1  0
 26 29  1  0
  2 34  1  0
  3 35  1  0
  3 36  1  0
  4 37  1  0
  4 38  1  0
  5 39  1  0
  9 40  1  0
  9 41  1  0
 10 42  1  0
 10 43  1  0
 11 44  1  0
 11 45  1  0
 12 46  1  0
 12 47  1  0
 14 48  1  0
 15 49  1  0
 15 50  1  0
 16 51  1  0
 16 52  1  0
 18 53  1  0
 18 54  1  0
 19 55  1  0
 19 56  1  0
 19 57  1  0
 20 58  1  0
 20 59  1  0
 20 60  1  0
 21 61  1  0
 21 62  1  0
 21 63  1  0
 22 64  1  0
 22 65  1  0
 22 66  1  0
 23 67  1  0
 23 68  1  0
 23 69  1  0
 24 70  1  0
 24 71  1  0
 25 72  1  0
 25 73  1  0
 26 74  1  0
 27 75  1  0
 28 76  1  0
 28 77  1  0
 28 78  1  0
 29 79  1  0
 30 80  1  0
 30 81  1  0
 31 82  1  0
 32 83  1  0
 32 84  1  0
 33 85  1  0
M  END
> <Name>
RCGP2016_S15

> <Clean Energy>
250.04

$$$$
RCGP2016_S16
  SciTegic12132405553D

 83 87  0  0  0  0            999 V2000
   -2.4468   -3.3860    0.5595 C   0  0  1  0  0  0
   -2.4709   -1.8655    0.2951 C   0  0  2  0  0  0
   -1.1073   -3.9742    0.0795 C   0  0
    0.1688   -3.2500    0.6751 C   0  0
    0.1076   -1.7216    0.2143 C   0  0  1  0  0  0
   -1.2388   -0.9769    0.8597 C   0  0  1  0  0  0
    1.5133   -0.9012    0.4647 C   0  0  2  0  0  0
    1.3704    0.5373   -0.0609 C   0  0  1  0  0  0
    0.0990    1.2941    0.6123 C   0  0
   -1.2901    0.4857    0.2835 C   0  0
    2.7476   -1.5958   -0.4665 C   0  0
    3.9768   -0.5537   -1.0460 C   0  0
    4.3675    0.4477   -0.0750 C   0  0  2  0  0  0
    2.8886    1.3175    0.3514 C   0  0  1  0  0  0
    5.5264    1.4725   -0.6740 C   0  0
    5.5606    2.5950    0.3053 C   0  0
    4.2292    3.4604    0.0944 C   0  0  1  0  0  0
    2.9622    2.5961   -0.3626 C   0  0
    5.0739   -0.3849    1.1066 C   0  0
    1.0229    0.5878   -1.6926 C   0  0
   -1.3313   -0.7784    2.4625 C   0  0
    1.9057   -0.9053    2.0458 C   0  0
   -2.6228   -3.7711    2.1335 C   0  0
    4.0458    4.1853    1.4404 C   0  0
   -3.9259   -1.3898    0.8305 C   0  0
   -5.2258   -2.3048    0.6687 C   0  0
   -4.8910   -3.0569   -0.5377 C   0  0  1  0  0  0
   -3.6389   -4.0292   -0.3749 C   0  0  2  0  0  0
   -4.0055   -5.4563    0.1429 C   0  0
   -5.9569   -3.8110   -1.1147 O   0  0
   -4.0762   -0.2519    1.2876 O   0  0
    4.3443    4.4764   -1.0797 C   0  0
    5.4598    5.3744   -0.9052 O   0  0
   -2.4000   -1.7920   -0.8006 H   0  0
   -1.0874   -5.0524    0.2836 H   0  0
   -1.0460   -3.8089   -1.0047 H   0  0
    0.2293   -3.3283    1.7686 H   0  0
    1.0456   -3.7302    0.2265 H   0  0
   -0.0340   -1.7247   -0.8687 H   0  0
    0.2373    1.3498    1.6955 H   0  0
    0.0367    2.3130    0.2090 H   0  0
   -2.1671    1.0053    0.6881 H   0  0
   -1.3959    0.4244   -0.7931 H   0  0
    3.0883   -2.5041    0.0486 H   0  0
    2.3276   -1.8907   -1.4371 H   0  0
    4.8224   -1.1418   -1.4249 H   0  0
    3.5825    0.0299   -1.8621 H   0  0
    2.9666    1.5595    1.4183 H   0  0
    6.4587    0.9030   -0.7816 H   0  0
    5.2554    1.9139   -1.6413 H   0  0
    5.5402    2.1085    1.2649 H   0  0
    6.4246    3.2717    0.2740 H   0  0
    2.0740    3.2333   -0.2701 H   0  0
    3.0803    2.2980   -1.4110 H   0  0
    5.3923    0.2922    1.9050 H   0  0
    5.9555   -0.8908    0.6913 H   0  0
    4.4336   -1.1291    1.5306 H   0  0
    0.9247    1.6359   -2.0008 H   0  0
    0.0922    0.0758   -1.9180 H   0  0
    1.7841    0.1320   -2.2956 H   0  0
   -2.2838   -0.2978    2.7057 H   0  0
   -0.5549   -0.1445    2.8252 H   0  0
   -1.2633   -1.7028    2.9805 H   0  0
    2.8057   -0.4003    2.2518 H   0  0
    2.0177   -1.9433    2.3794 H   0  0
    1.1794   -0.4382    2.6284 H   0  0
   -2.5979   -4.8579    2.2564 H   0  0
   -3.5652   -3.3948    2.5309 H   0  0
   -1.8182   -3.3781    2.7138 H   0  0
    3.9212    3.4430    2.2415 H   0  0
    3.1548    4.8256    1.3895 H   0  0
    4.9316    4.8013    1.6458 H   0  0
   -5.4103   -2.9787    1.5167 H   0  0
   -6.0955   -1.6492    0.5282 H   0  0
   -4.6199   -2.2378   -1.2205 H   0  0
   -3.3297   -4.1178   -1.4246 H   0  0
   -3.1081   -6.0903    0.1556 H   0  0
   -4.7494   -5.8973   -0.5344 H   0  0
   -4.4369   -5.4069    1.1496 H   0  0
   -5.6569   -4.2026   -1.9731 H   0  0
    3.4149    5.0580   -1.1464 H   0  0
    4.4899    3.9184   -2.0149 H   0  0
    5.3422    5.9355   -0.1039 H   0  0
 32 33  1  0
 17 32  1  0
  1  2  1  0
  1  3  1  0
  3  4  1  0
  4  5  1  0
  5  6  1  0
  6  2  1  0
  5  7  1  0
  7  8  1  0
  8  9  1  0
  9 10  1  0
 10  6  1  0
  7 11  1  0
 11 12  1  0
 12 13  1  0
 13 14  1  0
 14  8  1  0
 13 15  1  0
 15 16  1  0
 16 17  1  0
 17 18  1  0
 18 14  1  0
 13 19  1  0
  8 20  1  0
  6 21  1  0
  7 22  1  0
  1 23  1  0
 17 24  1  0
  2 25  1  0
 25 26  1  0
 26 27  1  0
 27 28  1  0
 28  1  1  0
 28 29  1  0
 27 30  1  0
 25 31  2  0
  2 34  1  0
  3 35  1  0
  3 36  1  0
  4 37  1  0
  4 38  1  0
  5 39  1  0
  9 40  1  0
  9 41  1  0
 10 42  1  0
 10 43  1  0
 11 44  1  0
 11 45  1  0
 12 46  1  0
 12 47  1  0
 14 48  1  0
 15 49  1  0
 15 50  1  0
 16 51  1  0
 16 52  1  0
 18 53  1  0
 18 54  1  0
 19 55  1  0
 19 56  1  0
 19 57  1  0
 20 58  1  0
 20 59  1  0
 20 60  1  0
 21 61  1  0
 21 62  1  0
 21 63  1  0
 22 64  1  0
 22 65  1  0
 22 66  1  0
 23 67  1  0
 23 68  1  0
 23 69  1  0
 24 70  1  0
 24 71  1  0
 24 72  1  0
 26 73  1  0
 26 74  1  0
 27 75  1  0
 28 76  1  0
 29 77  1  0
 29 78  1  0
 29 79  1  0
 30 80  1  0
 32 81  1  0
 32 82  1  0
 33 83  1  0
M  END
> <Name>
RCGP2016_S16

> <Clean Energy>
251.252

$$$$
RCGP2016_S3_I
  SciTegic12132405553D

128132  0  0  0  0            999 V2000
    3.0486    2.2997  -10.6181 C   0  0
    4.2573    2.4027   -9.8132 O   0  0
    4.1988    1.9974   -8.3522 C   0  0  2  0  0  0
    4.2479    0.3824   -8.1792 C   0  0
    4.2272    0.1093   -6.5690 C   0  0  1  0  0  0
    2.9645    0.7861   -5.7899 C   0  0  2  0  0  0
    3.0535    2.3233   -6.0517 C   0  0
    2.9837    2.6757   -7.5957 C   0  0
    4.3252   -1.4532   -6.2477 C   0  0
    4.5430   -1.6491   -4.7174 C   0  0
    3.3671   -1.1283   -3.8261 C   0  0  2  0  0  0
    3.2046    0.4444   -4.1931 C   0  0  2  0  0  0
    3.8041   -1.1666   -2.2069 C   0  0  1  0  0  0
    2.6266   -0.5317   -1.3862 C   0  0
    1.9365    0.5269   -1.8820 C   0  0
    2.0668    1.0378   -3.3122 C   0  0
    4.2606   -2.5325   -1.6043 C   0  0
    3.1506   -3.4776   -1.0792 C   0  0
    2.4403   -2.7271    0.1576 C   0  0  2  0  0  0
    1.7376   -1.3474   -0.3338 C   0  0  1  0  0  0
    3.4811   -2.3383    1.3395 C   0  0
    2.7903   -1.5357    2.5319 C   0  0
    2.1996   -0.1295    2.0079 C   0  0  2  0  0  0
    1.0962   -0.4261    0.9034 C   0  0  2  0  0  0
    3.3750    0.7704    1.5115 C   0  0
   -0.1327   -1.0571    1.6503 C   0  0
    1.4591   -3.8066    0.7115 C   0  0
    2.1122   -2.0712   -4.0708 C   0  0
    1.4831    0.3451   -6.2680 C   0  0
    3.1588   -0.4423   -8.9786 C   0  0
    5.5699   -0.1082   -8.7995 C   0  0
    5.1387   -0.3376   -1.9683 C   0  0
    1.9637    1.9695  -10.1288 O   0  0
    3.0930    2.4207  -12.1052 C   0  0
    2.9457    0.9584  -12.5443 C   0  0
    2.8781    0.7520  -14.0485 C   0  0
    2.7497   -0.7674  -14.2264 C   0  0
    2.6402   -1.1700  -15.6917 C   0  0
    2.5672   -2.7021  -15.7281 C   0  0
    2.4609   -3.1983  -17.1667 C   0  0
    2.4567   -4.7304  -17.1479 C   0  0
    2.3754   -5.2553  -18.5797 C   0  0
    2.4363   -6.7841  -18.5555 C   0  0
    2.3814   -7.3049  -19.9912 C   0  0
    2.4907   -8.8298  -19.9799 C   0  0
    2.4521   -9.3384  -21.4214 C   0  0
    2.5870  -10.8626  -21.4222 C   0  0
    2.5528  -11.3659  -22.8713 C   0  0
    5.1066    2.3743   -7.8606 H   0  0
    5.1242    0.5945   -6.1589 H   0  0
    2.2424    2.8321   -5.5163 H   0  0
    4.0215    2.6838   -5.6761 H   0  0
    2.0374    2.3396   -8.0156 H   0  0
    3.0595    3.7651   -7.7117 H   0  0
    3.4295   -1.9817   -6.5950 H   0  0
    5.2049   -1.8679   -6.7485 H   0  0
    4.7120   -2.7087   -4.4892 H   0  0
    5.4493   -1.0831   -4.4929 H   0  0
    4.1495    0.8912   -3.9385 H   0  0
    1.0728    0.8350   -1.3825 H   0  0
    1.1300    0.6587   -3.7110 H   0  0
    2.0036    2.1314   -3.3775 H   0  0
    4.9609   -3.0094   -2.2985 H   0  0
    4.8127   -2.3071   -0.7291 H   0  0
    2.4301   -3.7360   -1.8573 H   0  0
    3.6208   -4.3930   -0.6977 H   0  0
    0.9057   -1.6067   -1.0019 H   0  0
    3.9405   -3.2625    1.7132 H   0  0
    4.2614   -1.6912    0.9534 H   0  0
    1.9941   -2.1511    2.9628 H   0  0
    3.5375   -1.3292    3.3085 H   0  0
    1.7221    0.4196    2.8303 H   0  0
    0.6887    0.5024    0.4939 H   0  0
    4.0689    0.9407    2.3454 H   0  0
    3.9167    0.3021    0.6957 H   0  0
    2.9710    1.7324    1.1697 H   0  0
   -0.4922   -0.3385    2.3987 H   0  0
   -0.9321   -1.2531    0.9223 H   0  0
    0.1171   -1.9675    2.1548 H   0  0
    0.9279   -3.4697    1.5704 H   0  0
    0.7437   -4.0780   -0.0774 H   0  0
    2.0414   -4.6933    0.9944 H   0  0
    1.2604   -1.7352   -3.4691 H   0  0
    1.8315   -2.0825   -5.1076 H   0  0
    2.3737   -3.0918   -3.7852 H   0  0
    0.7328    0.8729   -5.6726 H   0  0
    1.3148    0.6034   -7.2962 H   0  0
    1.3367   -0.7031   -6.1683 H   0  0
    3.3105   -1.5143   -8.8106 H   0  0
    2.1672   -0.1802   -8.7017 H   0  0
    3.2801   -0.2421  -10.0375 H   0  0
    6.4108    0.3996   -8.3064 H   0  0
    5.6699   -1.1921   -8.6724 H   0  0
    5.5736    0.1322   -9.8726 H   0  0
    5.3746   -0.3622   -0.8949 H   0  0
    5.9680   -0.7885   -2.5240 H   0  0
    5.0243    0.7033   -2.2693 H   0  0
    4.0397    2.8423  -12.4705 H   0  0
    2.2154    2.9659  -12.4798 H   0  0
    3.7996    0.3918  -12.1450 H   0  0
    2.0183    0.5591  -12.1100 H   0  0
    1.9999    1.2659  -14.4636 H   0  0
    3.7924    1.1184  -14.5342 H   0  0
    3.6378   -1.2452  -13.7897 H   0  0
    1.8529   -1.1187  -13.6963 H   0  0
    1.7361   -0.7319  -16.1374 H   0  0
    3.5276   -0.8302  -16.2415 H   0  0
    3.4818   -3.1085  -15.2746 H   0  0
    1.6932   -3.0471  -15.1571 H   0  0
    1.5373   -2.8203  -17.6273 H   0  0
    3.3291   -2.8476  -17.7398 H   0  0
    3.3898   -5.0828  -16.6869 H   0  0
    1.5992   -5.0988  -16.5670 H   0  0
    1.4381   -4.9218  -19.0467 H   0  0
    3.2289   -4.8727  -19.1549 H   0  0
    3.3811   -7.0991  -18.0912 H   0  0
    1.5916   -7.1867  -17.9789 H   0  0
    1.4348   -7.0011  -20.4597 H   0  0
    3.2230   -6.8885  -20.5610 H   0  0
    3.4425   -9.1226  -19.5148 H   0  0
    1.6556   -9.2606  -19.4106 H   0  0
    1.4999   -9.0501  -21.8881 H   0  0
    3.2857   -8.8989  -21.9866 H   0  0
    3.5425  -11.1447  -20.9566 H   0  0
    1.7567  -11.3062  -20.8558 H   0  0
    2.6530  -12.4606  -22.8825 H   0  0
    1.5982  -11.0788  -23.3344 H   0  0
    3.3835  -10.9148  -23.4335 H   0  0
  1  2  1  0
  3  2  1  0
  3  4  1  0
  5  4  1  0
  6  5  1  0
  6  7  1  0
  7  8  1  0
  3  8  1  0
  5  9  1  0
  9 10  1  0
 11 10  1  0
 12 11  1  0
  6 12  1  0
 11 13  1  0
 13 14  1  0
 14 15  2  0
 15 16  1  0
 12 16  1  0
 13 17  1  0
 17 18  1  0
 19 18  1  0
 20 19  1  0
 20 14  1  0
 19 21  1  0
 21 22  1  0
 23 22  1  0
 24 23  1  0
 20 24  1  0
 23 25  1  0
 24 26  1  0
 19 27  1  0
 11 28  1  0
  6 29  1  0
  4 30  1  0
  4 31  1  0
 13 32  1  0
  1 33  2  0
 34 35  1  0
 35 36  1  0
 36 37  1  0
 37 38  1  0
 38 39  1  0
 39 40  1  0
 40 41  1  0
 41 42  1  0
 42 43  1  0
 43 44  1  0
 44 45  1  0
 45 46  1  0
 46 47  1  0
 47 48  1  0
  1 34  1  0
  3 49  1  0
  5 50  1  0
  7 51  1  0
  7 52  1  0
  8 53  1  0
  8 54  1  0
  9 55  1  0
  9 56  1  0
 10 57  1  0
 10 58  1  0
 12 59  1  0
 15 60  1  0
 16 61  1  0
 16 62  1  0
 17 63  1  0
 17 64  1  0
 18 65  1  0
 18 66  1  0
 20 67  1  0
 21 68  1  0
 21 69  1  0
 22 70  1  0
 22 71  1  0
 23 72  1  0
 24 73  1  0
 25 74  1  0
 25 75  1  0
 25 76  1  0
 26 77  1  0
 26 78  1  0
 26 79  1  0
 27 80  1  0
 27 81  1  0
 27 82  1  0
 28 83  1  0
 28 84  1  0
 28 85  1  0
 29 86  1  0
 29 87  1  0
 29 88  1  0
 30 89  1  0
 30 90  1  0
 30 91  1  0
 31 92  1  0
 31 93  1  0
 31 94  1  0
 32 95  1  0
 32 96  1  0
 32 97  1  0
 34 98  1  0
 34 99  1  0
 35100  1  0
 35101  1  0
 36102  1  0
 36103  1  0
 37104  1  0
 37105  1  0
 38106  1  0
 38107  1  0
 39108  1  0
 39109  1  0
 40110  1  0
 40111  1  0
 41112  1  0
 41113  1  0
 42114  1  0
 42115  1  0
 43116  1  0
 43117  1  0
 44118  1  0
 44119  1  0
 45120  1  0
 45121  1  0
 46122  1  0
 46123  1  0
 47124  1  0
 47125  1  0
 48126  1  0
 48127  1  0
 48128  1  0
M  END
> <Name>
RCGP2016_S3_I

> <Clean Energy>
141.374

$$$$
RCGP2016_S3_II
  SciTegic12132405553D

134138  0  0  0  0            999 V2000
    3.0546    2.4464  -10.6017 C   0  0
    4.3212    2.5513   -9.8591 O   0  0
    4.3220    2.1662   -8.3787 C   0  0  2  0  0  0
    4.3516    0.5488   -8.1979 C   0  0
    4.3555    0.2680   -6.5877 C   0  0  1  0  0  0
    3.1181    0.9706   -5.7839 C   0  0  2  0  0  0
    3.2514    2.5137   -6.0292 C   0  0
    3.1528    2.8772   -7.5783 C   0  0
    4.4213   -1.3012   -6.2946 C   0  0
    4.6277   -1.5495   -4.7742 C   0  0
    3.4562   -1.0266   -3.8795 C   0  0  2  0  0  0
    3.3509    0.5694   -4.1878 C   0  0  2  0  0  0
    3.8593   -1.1523   -2.2568 C   0  0  1  0  0  0
    2.6873   -0.5174   -1.4329 C   0  0
    2.0545    0.5973   -1.8835 C   0  0
    2.2303    1.1706   -3.2885 C   0  0
    4.2506   -2.5665   -1.7086 C   0  0
    3.0858   -3.5040   -1.2825 C   0  0
    2.3462   -2.8069   -0.0414 C   0  0  2  0  0  0
    1.7222   -1.3647   -0.4704 C   0  0  1  0  0  0
    3.3428   -2.5477    1.2044 C   0  0
    2.6293   -1.7990    2.4168 C   0  0
    2.1255   -0.3351    1.9670 C   0  0  2  0  0  0
    1.0631   -0.5027    0.7970 C   0  0  2  0  0  0
    3.3626    0.5382    1.5870 C   0  0
   -0.2263   -1.1263    1.4398 C   0  0
    1.2942   -3.8770    0.3896 C   0  0
    2.1758   -1.9171   -4.1815 C   0  0
    1.6093    0.5989   -6.2555 C   0  0
    3.2332   -0.2696   -8.9626 C   0  0
    5.6494    0.0404   -8.8548 C   0  0
    5.2127   -0.3800   -1.9577 C   0  0
    1.9970    2.1481  -10.0385 O   0  0
    2.9979    2.5010  -12.1006 C   0  0
    2.8666    1.0075  -12.4649 C   0  0
    2.6923    0.7075  -13.9482 C   0  0
    2.6236   -0.8333  -14.0389 C   0  0
    2.4259   -1.3167  -15.4761 C   0  0
    2.4494   -2.8586  -15.4652 C   0  0
    2.2742   -3.3920  -16.8903 C   0  0
    2.3907   -4.9261  -16.8831 C   0  0
    2.2476   -5.4357  -18.3220 C   0  0
    2.4423   -6.9579  -18.3678 C   0  0
    2.3214   -7.4138  -19.8273 C   0  0
    2.5715   -8.9223  -19.9352 C   0  0
    2.4585   -9.3257  -21.4103 C   0  0
    2.7408  -10.8222  -21.5654 C   0  0
    2.6259  -11.1914  -23.0482 C   0  0
    2.9223  -12.6829  -23.2277 C   0  0
    2.8032  -13.0404  -24.7166 C   0  0
    5.2546    2.5285   -7.9233 H   0  0
    5.2682    0.7268   -6.1803 H   0  0
    2.4652    3.0404   -5.4738 H   0  0
    4.2367    2.8425   -5.6683 H   0  0
    2.1875    2.5702   -7.9663 H   0  0
    3.2535    3.9645   -7.6981 H   0  0
    3.5137   -1.8007   -6.6494 H   0  0
    5.2889   -1.7247   -6.8088 H   0  0
    4.7631   -2.6209   -4.5827 H   0  0
    5.5484   -1.0179   -4.5200 H   0  0
    4.3129    0.9706   -3.9090 H   0  0
    1.1905    0.9109   -1.3903 H   0  0
    1.2849    0.8449   -3.7073 H   0  0
    2.2079    2.2681   -3.3099 H   0  0
    4.9580   -3.0305   -2.4047 H   0  0
    4.7781   -2.4056   -0.8012 H   0  0
    2.3941   -3.6895   -2.1021 H   0  0
    3.5048   -4.4577   -0.9373 H   0  0
    0.9121   -1.5430   -1.1900 H   0  0
    3.7431   -3.5159    1.5322 H   0  0
    4.1673   -1.9135    0.9000 H   0  0
    1.7872   -2.4056    2.7668 H   0  0
    3.3459   -1.6812    3.2388 H   0  0
    1.6342    0.1780    2.8043 H   0  0
    0.7153    0.4692    0.4365 H   0  0
    3.0199    1.5395    1.2972 H   0  0
    3.9207    0.1006    0.7636 H   0  0
    4.0233    0.6161    2.4610 H   0  0
   -0.9970   -1.2330    0.6631 H   0  0
   -0.5908   -0.4456    2.2204 H   0  0
   -0.0416   -2.0801    1.8879 H   0  0
    0.7337   -3.5753    1.2428 H   0  0
    1.8233   -4.8060    0.6373 H   0  0
    0.6089   -4.0619   -0.4505 H   0  0
    1.3256   -1.5780   -3.5798 H   0  0
    2.3987   -2.9546   -3.9379 H   0  0
    1.9123   -1.8786   -5.2202 H   0  0
    0.8880    1.1457   -5.6420 H   0  0
    1.4183   -0.4384   -6.1771 H   0  0
    1.4392    0.8823   -7.2775 H   0  0
    3.3770   -1.3418   -8.7966 H   0  0
    3.3309   -0.0777  -10.0185 H   0  0
    2.2524    0.0026   -8.6638 H   0  0
    5.7397   -1.0442   -8.7303 H   0  0
    6.5105    0.5378   -8.3856 H   0  0
    5.6263    0.2809   -9.9276 H   0  0
    5.4263   -0.4598   -0.8820 H   0  0
    5.1369    0.6764   -2.2147 H   0  0
    6.0380   -0.8330   -2.5178 H   0  0
    3.9047    2.9284  -12.5494 H   0  0
    2.0801    3.0040  -12.4374 H   0  0
    3.7676    0.4912  -12.1033 H   0  0
    1.9894    0.6010  -11.9410 H   0  0
    1.7624    1.1607  -14.3206 H   0  0
    3.5488    1.0822  -14.5231 H   0  0
    3.5666   -1.2430  -13.6515 H   0  0
    1.7898   -1.2004  -13.4225 H   0  0
    1.4666   -0.9498  -15.8682 H   0  0
    3.2469   -0.9492  -16.1046 H   0  0
    3.4212   -3.1906  -15.0747 H   0  0
    1.6456   -3.2467  -14.8226 H   0  0
    1.2947   -3.0871  -17.2850 H   0  0
    3.0694   -2.9830  -17.5266 H   0  0
    3.3811   -5.2050  -16.4974 H   0  0
    1.6106   -5.3683  -16.2467 H   0  0
    1.2540   -5.1719  -18.7106 H   0  0
    3.0201   -4.9658  -18.9449 H   0  0
    3.4450   -7.2040  -17.9911 H   0  0
    1.6837   -7.4602  -17.7512 H   0  0
    1.3174   -7.1751  -20.2046 H   0  0
    3.0731   -6.8875  -20.4309 H   0  0
    3.5826   -9.1505  -19.5694 H   0  0
    1.8311   -9.4726  -19.3385 H   0  0
    1.4467   -9.1008  -21.7748 H   0  0
    3.1936   -8.7595  -21.9987 H   0  0
    3.7573  -11.0420  -21.2097 H   0  0
    2.0133  -11.4021  -20.9814 H   0  0
    1.6089  -10.9726  -23.4022 H   0  0
    3.3505  -10.6037  -23.6292 H   0  0
    3.9419  -12.8981  -22.8771 H   0  0
    2.2010  -13.2739  -22.6468 H   0  0
    3.0169  -14.1098  -24.8562 H   0  0
    3.5233  -12.4430  -25.2943 H   0  0
    1.7833  -12.8208  -25.0636 H   0  0
  1  2  1  0
  3  2  1  0
  3  4  1  0
  5  4  1  0
  6  5  1  0
  6  7  1  0
  7  8  1  0
  3  8  1  0
  5  9  1  0
  9 10  1  0
 11 10  1  0
 12 11  1  0
  6 12  1  0
 11 13  1  0
 13 14  1  0
 14 15  2  0
 15 16  1  0
 12 16  1  0
 13 17  1  0
 17 18  1  0
 19 18  1  0
 20 19  1  0
 20 14  1  0
 19 21  1  0
 21 22  1  0
 23 22  1  0
 24 23  1  0
 20 24  1  0
 23 25  1  0
 24 26  1  0
 19 27  1  0
 11 28  1  0
  6 29  1  0
  4 30  1  0
  4 31  1  0
 13 32  1  0
  1 33  2  0
 34 35  1  0
 35 36  1  0
 36 37  1  0
 37 38  1  0
 38 39  1  0
 39 40  1  0
 40 41  1  0
 41 42  1  0
 42 43  1  0
 43 44  1  0
 44 45  1  0
 45 46  1  0
 46 47  1  0
 47 48  1  0
 48 49  1  0
 49 50  1  0
  1 34  1  0
  3 51  1  0
  5 52  1  0
  7 53  1  0
  7 54  1  0
  8 55  1  0
  8 56  1  0
  9 57  1  0
  9 58  1  0
 10 59  1  0
 10 60  1  0
 12 61  1  0
 15 62  1  0
 16 63  1  0
 16 64  1  0
 17 65  1  0
 17 66  1  0
 18 67  1  0
 18 68  1  0
 20 69  1  0
 21 70  1  0
 21 71  1  0
 22 72  1  0
 22 73  1  0
 23 74  1  0
 24 75  1  0
 25 76  1  0
 25 77  1  0
 25 78  1  0
 26 79  1  0
 26 80  1  0
 26 81  1  0
 27 82  1  0
 27 83  1  0
 27 84  1  0
 28 85  1  0
 28 86  1  0
 28 87  1  0
 29 88  1  0
 29 89  1  0
 29 90  1  0
 30 91  1  0
 30 92  1  0
 30 93  1  0
 31 94  1  0
 31 95  1  0
 31 96  1  0
 32 97  1  0
 32 98  1  0
 32 99  1  0
 34100  1  0
 34101  1  0
 35102  1  0
 35103  1  0
 36104  1  0
 36105  1  0
 37106  1  0
 37107  1  0
 38108  1  0
 38109  1  0
 39110  1  0
 39111  1  0
 40112  1  0
 40113  1  0
 41114  1  0
 41115  1  0
 42116  1  0
 42117  1  0
 43118  1  0
 43119  1  0
 44120  1  0
 44121  1  0
 45122  1  0
 45123  1  0
 46124  1  0
 46125  1  0
 47126  1  0
 47127  1  0
 48128  1  0
 48129  1  0
 49130  1  0
 49131  1  0
 50132  1  0
 50133  1  0
 50134  1  0
M  END
> <Name>
RCGP2016_S3_II

> <Clean Energy>
144.661

$$$$
RCGP2016_S3_III
  SciTegic12132405553D

140144  0  0  0  0            999 V2000
    3.0527    2.4560  -10.5929 C   0  0
    4.3203    2.5643   -9.8511 O   0  0
    4.3234    2.1802   -8.3698 C   0  0  2  0  0  0
    4.3560    0.5631   -8.1885 C   0  0
    4.3611    0.2819   -6.5781 C   0  0  1  0  0  0
    3.1228    0.9822   -5.7734 C   0  0  2  0  0  0
    3.2539    2.5259   -6.0184 C   0  0
    3.1538    2.8896   -7.5682 C   0  0
    4.4297   -1.2873   -6.2862 C   0  0
    4.6361   -1.5372   -4.7661 C   0  0
    3.4634   -1.0177   -3.8714 C   0  0  2  0  0  0
    3.3560    0.5790   -4.1772 C   0  0  2  0  0  0
    3.8652   -1.1460   -2.2486 C   0  0  1  0  0  0
    2.6908   -0.5153   -1.4249 C   0  0
    2.0574    0.6001   -1.8732 C   0  0
    2.2342    1.1773   -3.2769 C   0  0
    4.2587   -2.5606   -1.7025 C   0  0
    3.0956   -3.5021   -1.2815 C   0  0
    2.3510   -2.8104   -0.0408 C   0  0  2  0  0  0
    1.7247   -1.3682   -0.4674 C   0  0  1  0  0  0
    3.3433   -2.5524    1.2083 C   0  0
    2.6242   -1.8093    2.4210 C   0  0
    2.1179   -0.3453    1.9743 C   0  0  2  0  0  0
    1.0596   -0.5119    0.8005 C   0  0  2  0  0  0
    3.3539    0.5322    1.6008 C   0  0
   -0.2303   -1.1409    1.4372 C   0  0
    1.3006   -3.8845    0.3840 C   0  0
    2.1846   -1.9096   -4.1761 C   0  0
    1.6142    0.6094   -6.2449 C   0  0
    3.2384   -0.2572   -8.9524 C   0  0
    5.6542    0.0571   -8.8463 C   0  0
    5.2166   -0.3716   -1.9464 C   0  0
    1.9963    2.1569  -10.0279 O   0  0
    2.9939    2.5087  -12.0929 C   0  0
    2.8611    1.0139  -12.4580 C   0  0
    2.6853    0.7141  -13.9429 C   0  0
    2.6161   -0.8281  -14.0368 C   0  0
    2.4184   -1.3111  -15.4763 C   0  0
    2.4427   -2.8549  -15.4681 C   0  0
    2.2686   -3.3900  -16.8951 C   0  0
    2.3871   -4.9263  -16.8883 C   0  0
    2.2451   -5.4399  -18.3284 C   0  0
    2.4419   -6.9647  -18.3735 C   0  0
    2.3200   -7.4244  -19.8342 C   0  0
    2.5714   -8.9354  -19.9447 C   0  0
    2.4529   -9.3371  -21.4223 C   0  0
    2.7352  -10.8352  -21.5899 C   0  0
    2.6084  -11.1911  -23.0772 C   0  0
    2.9041  -12.6797  -23.2831 C   0  0
    2.7661  -13.0088  -24.7738 C   0  0
    3.0663  -14.4940  -24.9979 C   0  0
    2.9208  -14.8148  -26.4929 C   0  0
    5.2559    2.5443   -7.9153 H   0  0
    5.2733    0.7419   -6.1707 H   0  0
    2.4673    3.0512   -5.4623 H   0  0
    4.2390    2.8560   -5.6578 H   0  0
    2.1887    2.5812   -7.9554 H   0  0
    3.2527    3.9771   -7.6880 H   0  0
    3.5230   -1.7881   -6.6415 H   0  0
    5.2980   -1.7089   -6.8008 H   0  0
    4.7731   -2.6087   -4.5762 H   0  0
    5.5559   -1.0046   -4.5105 H   0  0
    4.3175    0.9808   -3.8972 H   0  0
    1.1921    0.9109   -1.3805 H   0  0
    1.2895    0.8514   -3.6970 H   0  0
    2.2104    2.2747   -3.2961 H   0  0
    4.9686   -3.0213   -2.3984 H   0  0
    4.7840   -2.4004   -0.7935 H   0  0
    2.4064   -3.6873   -2.1031 H   0  0
    3.5160   -4.4556   -0.9377 H   0  0
    0.9172   -1.5463   -1.1900 H   0  0
    3.7451   -3.5206    1.5344 H   0  0
    4.1672   -1.9153    0.9081 H   0  0
    1.7826   -2.4192    2.7665 H   0  0
    3.3380   -1.6921    3.2455 H   0  0
    1.6228    0.1638    2.8116 H   0  0
    0.7103    0.4602    0.4421 H   0  0
    3.0095    1.5336    1.3131 H   0  0
    3.9157    0.0987    0.7776 H   0  0
    4.0118    0.6090    2.4770 H   0  0
   -0.9982   -1.2471    0.6576 H   0  0
   -0.5991   -0.4637    2.2188 H   0  0
   -0.0446   -2.0956    1.8828 H   0  0
    0.7369   -3.5870    1.2365 H   0  0
    1.8314   -4.8129    0.6304 H   0  0
    0.6182   -4.0687   -0.4587 H   0  0
    1.3333   -1.5729   -3.5745 H   0  0
    2.4088   -2.9471   -3.9343 H   0  0
    1.9218   -1.8696   -5.2149 H   0  0
    0.8926    1.1551   -5.6307 H   0  0
    1.4241   -0.4280   -6.1672 H   0  0
    1.4435    0.8933   -7.2666 H   0  0
    3.3840   -1.3291   -8.7866 H   0  0
    3.3350   -0.0651  -10.0084 H   0  0
    2.2573    0.0134   -8.6529 H   0  0
    5.7465   -1.0273   -8.7220 H   0  0
    6.5147    0.5560   -8.3777 H   0  0
    5.6299    0.2977   -9.9191 H   0  0
    5.4292   -0.4533   -0.8706 H   0  0
    5.1391    0.6851   -2.2014 H   0  0
    6.0434   -0.8220   -2.5066 H   0  0
    3.9003    2.9356  -12.5429 H   0  0
    2.0762    3.0123  -12.4287 H   0  0
    3.7620    0.4971  -12.0974 H   0  0
    1.9840    0.6079  -11.9334 H   0  0
    1.7555    1.1682  -14.3146 H   0  0
    3.5417    1.0892  -14.5178 H   0  0
    3.5591   -1.2382  -13.6499 H   0  0
    1.7823   -1.1959  -13.4208 H   0  0
    1.4591   -0.9439  -15.8682 H   0  0
    3.2395   -0.9424  -16.1041 H   0  0
    3.4145   -3.1864  -15.0772 H   0  0
    1.6390   -3.2440  -14.8259 H   0  0
    1.2890   -3.0861  -17.2904 H   0  0
    3.0638   -2.9801  -17.5310 H   0  0
    3.3776   -5.2037  -16.5018 H   0  0
    1.6074   -5.3689  -16.2517 H   0  0
    1.2512   -5.1779  -18.7174 H   0  0
    3.0169   -4.9697  -18.9519 H   0  0
    3.4451   -7.2092  -17.9970 H   0  0
    1.6842   -7.4670  -17.7557 H   0  0
    1.3152   -7.1867  -20.2099 H   0  0
    3.0701   -6.8974  -20.4394 H   0  0
    3.5838   -9.1635  -19.5823 H   0  0
    1.8331   -9.4871  -19.3465 H   0  0
    1.4393   -9.1110  -21.7810 H   0  0
    3.1845   -8.7678  -22.0120 H   0  0
    3.7544  -11.0574  -21.2433 H   0  0
    2.0119  -11.4202  -21.0056 H   0  0
    1.5882  -10.9691  -23.4192 H   0  0
    3.3267  -10.5960  -23.6579 H   0  0
    3.9279  -12.9009  -22.9498 H   0  0
    2.1909  -13.2830  -22.7051 H   0  0
    1.7414  -12.7875  -25.1037 H   0  0
    3.4764  -12.4009  -25.3516 H   0  0
    4.0927  -14.7138  -24.6712 H   0  0
    2.3577  -15.1031  -24.4195 H   0  0
    3.1359  -15.8796  -26.6631 H   0  0
    3.6276  -14.2002  -27.0689 H   0  0
    1.8936  -14.5912  -26.8153 H   0  0
  1  2  1  0
  3  2  1  0
  3  4  1  0
  5  4  1  0
  6  5  1  0
  6  7  1  0
  7  8  1  0
  3  8  1  0
  5  9  1  0
  9 10  1  0
 11 10  1  0
 12 11  1  0
  6 12  1  0
 11 13  1  0
 13 14  1  0
 14 15  2  0
 15 16  1  0
 12 16  1  0
 13 17  1  0
 17 18  1  0
 19 18  1  0
 20 19  1  0
 20 14  1  0
 19 21  1  0
 21 22  1  0
 23 22  1  0
 24 23  1  0
 20 24  1  0
 23 25  1  0
 24 26  1  0
 19 27  1  0
 11 28  1  0
  6 29  1  0
  4 30  1  0
  4 31  1  0
 13 32  1  0
  1 33  2  0
 34 35  1  0
 35 36  1  0
 36 37  1  0
 37 38  1  0
 38 39  1  0
 39 40  1  0
 40 41  1  0
 41 42  1  0
 42 43  1  0
 43 44  1  0
 44 45  1  0
 45 46  1  0
 46 47  1  0
 47 48  1  0
 48 49  1  0
 49 50  1  0
 50 51  1  0
 51 52  1  0
  1 34  1  0
  3 53  1  0
  5 54  1  0
  7 55  1  0
  7 56  1  0
  8 57  1  0
  8 58  1  0
  9 59  1  0
  9 60  1  0
 10 61  1  0
 10 62  1  0
 12 63  1  0
 15 64  1  0
 16 65  1  0
 16 66  1  0
 17 67  1  0
 17 68  1  0
 18 69  1  0
 18 70  1  0
 20 71  1  0
 21 72  1  0
 21 73  1  0
 22 74  1  0
 22 75  1  0
 23 76  1  0
 24 77  1  0
 25 78  1  0
 25 79  1  0
 25 80  1  0
 26 81  1  0
 26 82  1  0
 26 83  1  0
 27 84  1  0
 27 85  1  0
 27 86  1  0
 28 87  1  0
 28 88  1  0
 28 89  1  0
 29 90  1  0
 29 91  1  0
 29 92  1  0
 30 93  1  0
 30 94  1  0
 30 95  1  0
 31 96  1  0
 31 97  1  0
 31 98  1  0
 32 99  1  0
 32100  1  0
 32101  1  0
 34102  1  0
 34103  1  0
 35104  1  0
 35105  1  0
 36106  1  0
 36107  1  0
 37108  1  0
 37109  1  0
 38110  1  0
 38111  1  0
 39112  1  0
 39113  1  0
 40114  1  0
 40115  1  0
 41116  1  0
 41117  1  0
 42118  1  0
 42119  1  0
 43120  1  0
 43121  1  0
 44122  1  0
 44123  1  0
 45124  1  0
 45125  1  0
 46126  1  0
 46127  1  0
 47128  1  0
 47129  1  0
 48130  1  0
 48131  1  0
 49132  1  0
 49133  1  0
 50134  1  0
 50135  1  0
 51136  1  0
 51137  1  0
 52138  1  0
 52139  1  0
 52140  1  0
M  END
> <Name>
RCGP2016_S3_III

> <Clean Energy>
143.013

$$$$
MGA2019_MQ1
  DSViewer          3D                             0

 81 85  0  0  0  0  0  0  0  0999 V2000
   -9.2448    0.1926   -3.1000 C   0  0
  -10.2757    0.2627   -4.2460 C   0  0
  -10.5369   -1.1174   -4.7195 C   0  0
   -9.3843   -1.8587   -5.2849 C   0  0  1  0  0  0
   -8.3420   -2.0584   -4.1108 C   0  0  2  0  0  0
   -7.9432   -0.5591   -3.5924 C   0  0  2  0  0  0
   -6.7529   -0.5214   -2.4743 C   0  0  1  0  0  0
   -7.0448   -2.6971   -4.6581 C   0  0
   -5.8672   -2.7707   -3.6209 C   0  0
   -5.4670   -1.2973   -3.2146 C   0  0  2  0  0  0
   -4.9427    1.0334   -1.2996 C   0  0
   -6.3122    0.9572   -2.1914 C   0  0
   -4.0410   -1.2459   -2.3385 C   0  0  2  0  0  0
   -3.7018    0.3366   -2.0653 C   0  0  2  0  0  0
   -2.2705    0.3684   -1.0634 C   0  0  1  0  0  0
   -2.7824   -1.8685   -3.1624 C   0  0
   -1.4764   -1.8270   -2.2642 C   0  0
   -0.9982   -0.4172   -1.7592 C   0  0  1  0  0  0
   -0.7569    2.7470   -1.4803 C   0  0
   -1.6112    1.7751   -0.4932 C   0  0
   -0.2783    0.5379   -2.8757 C   0  0
    0.3356    1.8639   -2.1352 C   0  0
  -11.6746   -1.5994   -4.7119 O   0  0
   -9.8690   -3.1587   -5.9934 C   0  0
   -8.9934   -3.0452   -3.0384 C   0  0
   -7.2655   -1.0512   -1.0412 C   0  0
   -4.1795   -2.1483   -0.9885 C   0  0
   -2.6029   -0.1969   -0.1957 H   0  0
    0.1166   -0.8205   -0.7203 C   0  0
   -1.4707    3.5146   -2.5700 C   0  0
   -0.1368    3.8538   -0.6311 C   0  0
   -3.6063    1.0821   -3.4739 C   0  0
   -7.5403   -0.0360   -4.4702 H   0  0
   -5.2808   -0.7700   -4.1451 H   0  0
   -9.0045    1.2168   -2.7933 H   0  0
   -9.6791   -0.3479   -2.2506 H   0  0
  -11.1986    0.7579   -3.9154 H   0  0
   -9.7915    0.8250   -5.0564 H   0  0
   -8.8765   -1.2058   -6.0083 H   0  0
   -6.6800   -2.0728   -5.4849 H   0  0
   -7.2757   -3.7007   -5.0352 H   0  0
   -6.1343   -3.3662   -2.7387 H   0  0
   -5.0199   -3.2395   -4.1321 H   0  0
   -4.6929    2.0892   -1.1297 H   0  0
   -5.0984    0.5430   -0.3329 H   0  0
   -7.1345    1.4896   -1.6978 H   0  0
   -6.1180    1.4421   -3.1418 H   0  0
   -2.6175   -1.3212   -4.0934 H   0  0
   -2.9954   -2.9175   -3.4008 H   0  0
   -1.7008   -2.4062   -1.3841 H   0  0
   -0.6346   -2.3133   -2.7739 H   0  0
   -0.8687    1.4574    0.2408 H   0  0
   -2.3868    2.3551    0.0237 H   0  0
   -0.9562    0.8202   -3.6624 H   0  0
    0.5568   -0.0242   -3.3128 H   0  0
    1.0008    1.5142   -1.3545 H   0  0
    0.9171    2.4849   -2.8293 H   0  0
   -9.0122   -3.6922   -6.4254 H   0  0
  -10.5676   -2.8873   -6.7965 H   0  0
  -10.3836   -3.8127   -5.2789 H   0  0
   -8.3113   -3.2394   -2.2323 H   0  0
   -9.2236   -4.0042   -3.5124 H   0  0
   -9.9165   -2.6146   -2.6327 H   0  0
   -8.1106   -0.4393   -0.7100 H   0  0
   -6.5022   -0.9624   -0.2997 H   0  0
   -7.5656   -2.0692   -1.0818 H   0  0
   -4.3906   -3.1872   -1.2676 H   0  0
   -4.9389   -1.8017   -0.3635 H   0  0
   -3.2718   -2.1306   -0.3965 H   0  0
    0.5488    0.0417   -0.2162 H   0  0
    0.9121   -1.3653   -1.2459 H   0  0
   -0.3335   -1.4759    0.0375 H   0  0
   -0.7347    4.1456   -3.0861 H   0  0
   -2.2503    4.1494   -2.1280 H   0  0
   -1.8782    2.8759   -3.2694 H   0  0
    0.4984    4.4875   -1.2654 H   0  0
    0.4710    3.4023    0.1653 H   0  0
   -0.9362    4.4615   -0.1854 H   0  0
   -3.4690    2.1075   -3.2995 H   0  0
   -4.5041    0.9893   -4.0642 H   0  0
   -2.7913    0.6931   -4.0684 H   0  0
  1  2  1  0  0  0
  2  3  1  0  0  0
  3  4  1  0  0  0
  4  5  1  0  0  0
  5  6  1  0  0  0
  1  6  1  0  0  0
  8  9  1  0  0  0
  9 10  1  0  0  0
  7 10  1  0  0  0
  5  8  1  0  0  0
  7  6  1  0  0  0
 11 12  1  0  0  0
 13 14  1  0  0  0
 11 14  1  0  0  0
 12  7  1  0  0  0
 10 13  1  0  0  0
 16 17  1  0  0  0
 17 18  1  0  0  0
 15 18  1  0  0  0
 13 16  1  0  0  0
 15 14  1  0  0  0
 19 20  1  0  0  0
 21 22  1  0  0  0
 19 22  1  0  0  0
 20 15  1  0  0  0
 18 21  1  0  0  0
  3 23  2  0  0  0
 19 30  1  0  0  0
 19 31  1  0  0  0
  4 24  1  0  0  0
  5 25  1  0  0  0
  7 26  1  0  0  0
 13 27  1  0  0  0
 14 32  1  0  0  0
 15 28  1  0  0  0
 18 29  1  0  0  0
 10 34  1  0  0  0
  6 33  1  0  0  0
  1 35  1  0  0  0
  1 36  1  0  0  0
  2 37  1  0  0  0
  2 38  1  0  0  0
  4 39  1  0  0  0
  8 40  1  0  0  0
  8 41  1  0  0  0
  9 42  1  0  0  0
  9 43  1  0  0  0
 11 44  1  0  0  0
 11 45  1  0  0  0
 12 46  1  0  0  0
 12 47  1  0  0  0
 16 48  1  0  0  0
 16 49  1  0  0  0
 17 50  1  0  0  0
 17 51  1  0  0  0
 20 52  1  0  0  0
 20 53  1  0  0  0
 21 54  1  0  0  0
 21 55  1  0  0  0
 22 56  1  0  0  0
 22 57  1  0  0  0
 24 58  1  0  0  0
 24 59  1  0  0  0
 24 60  1  0  0  0
 25 61  1  0  0  0
 25 62  1  0  0  0
 25 63  1  0  0  0
 26 64  1  0  0  0
 26 65  1  0  0  0
 26 66  1  0  0  0
 27 67  1  0  0  0
 27 68  1  0  0  0
 27 69  1  0  0  0
 29 70  1  0  0  0
 29 71  1  0  0  0
 29 72  1  0  0  0
 30 73  1  0  0  0
 30 74  1  0  0  0
 30 75  1  0  0  0
 31 76  1  0  0  0
 31 77  1  0  0  0
 31 78  1  0  0  0
 32 79  1  0  0  0
 32 80  1  0  0  0
 32 81  1  0  0  0
M  END
> <Clean Energy>
12.1548

$$$$
MGA2019_MQ2
  SciTegic12132405553D

 83 87  0  0  0  0            999 V2000
   -4.2469   -1.4552   -6.1222 C   0  0
   -5.7062   -0.9847   -6.4145 C   0  0
   -5.8476   -0.2344   -7.7517 C   0  0  1  0  0  0
   -4.8872    1.0180   -7.6758 C   0  0  1  0  0  0
   -3.3317    0.6393   -7.4373 C   0  0  2  0  0  0
   -3.3058   -0.1858   -6.0331 C   0  0  2  0  0  0
   -1.8104   -0.5530   -5.4913 C   0  0  1  0  0  0
   -2.5043    1.9292   -7.2085 C   0  0
   -1.0171    1.6729   -6.7580 C   0  0
   -1.0413    0.9336   -5.3656 C   0  0  2  0  0  0
   -0.4042   -1.2867   -3.3555 C   0  0
   -1.8805   -1.1639   -4.0473 C   0  0
    0.4756    0.8581   -4.6629 C   0  0  2  0  0  0
    0.2898    0.1615   -3.1888 C   0  0  2  0  0  0
    1.8934   -0.0058   -2.5158 C   0  0  1  0  0  0
    1.1223    2.3317   -4.4154 C   0  0
    2.5717    2.1861   -3.7898 C   0  0
    2.6860    1.4363   -2.4134 C   0  0  1  0  0  0
    1.8422    0.0605    0.3329 C   0  0
    2.1766   -0.7252   -1.0525 C   0  0
    2.1854    2.2715   -1.0986 C   0  0
    2.5669    1.4282    0.2529 C   0  0
   -5.6384   -1.1445   -8.8594 O   0  0
   -5.1177    1.8666   -8.9595 C   0  0
   -2.7147   -0.0636   -8.7363 C   0  0
   -1.1365   -1.7277   -6.3679 C   0  0
    1.5081    0.0775   -5.6518 C   0  0
    2.3788   -0.6231   -3.2685 H   0  0
    4.2477    1.2700   -2.2781 C   0  0
    0.4014    0.3027    0.7223 C   0  0
    2.3739   -0.7795    1.4915 C   0  0
   -0.7525    1.0321   -2.3490 C   0  0
   -3.7311    0.4920   -5.2805 H   0  0
   -1.6587    1.5464   -4.7160 H   0  0
   -4.2576   -1.9713   -5.1565 H   0  0
   -3.8963   -2.1449   -6.9008 H   0  0
   -6.3853   -1.8478   -6.4200 H   0  0
   -5.9916   -0.3021   -5.6021 H   0  0
   -6.8765    0.1374   -7.8480 H   0  0
   -5.2082    1.6016   -6.8020 H   0  0
   -2.9748    2.4970   -6.3945 H   0  0
   -2.5192    2.5293   -8.1261 H   0  0
   -0.4558    1.0950   -7.5020 H   0  0
   -0.5458    2.6532   -6.6315 H   0  0
   -0.5198   -1.7291   -2.3571 H   0  0
    0.2391   -1.9338   -3.9607 H   0  0
   -2.3751   -2.1417   -4.0949 H   0  0
   -2.4849   -0.5092   -3.4294 H   0  0
    0.4867    2.9312   -3.7596 H   0  0
    1.2208    2.8449   -5.3794 H   0  0
    3.1464    1.6130   -4.4983 H   0  0
    3.0548    3.1665   -3.6883 H   0  0
    3.2598   -0.8499   -1.0083 H   0  0
    1.7103   -1.7190   -1.0412 H   0  0
    1.1304    2.4815   -1.1318 H   0  0
    2.7347    3.2213   -1.0727 H   0  0
    3.6344    1.2441    0.2236 H   0  0
    2.3412    1.9969    1.1646 H   0  0
   -4.8258   -1.6342   -8.7890 H   0  0
   -4.5201    2.7857   -8.9196 H   0  0
   -6.1818    2.1316   -9.0233 H   0  0
   -4.8402    1.2882   -9.8495 H   0  0
   -1.6686   -0.2723   -8.5967 H   0  0
   -2.8039    0.6094   -9.5949 H   0  0
   -3.2135   -0.9808   -8.9574 H   0  0
   -1.7788   -2.6140   -6.3365 H   0  0
   -0.1851   -2.0109   -5.9698 H   0  0
   -0.9939   -1.4372   -7.3785 H   0  0
    1.5797    0.6199   -6.6017 H   0  0
    1.2023   -0.9019   -5.8400 H   0  0
    2.5010    0.0059   -5.2228 H   0  0
    4.5327    0.7185   -1.3844 H   0  0
    4.7100    2.2656   -2.2484 H   0  0
    4.6177    0.7234   -3.1560 H   0  0
    0.3875    0.7950    1.7040 H   0  0
   -0.1325   -0.6549    0.7862 H   0  0
   -0.0646    0.9322    0.0517 H   0  0
    2.2172   -0.2394    2.4354 H   0  0
    3.4476   -0.9614    1.3445 H   0  0
    1.8381   -1.7382    1.5216 H   0  0
   -0.9341    0.5461   -1.4371 H   0  0
   -1.7088    1.1350   -2.8370 H   0  0
   -0.3757    2.0296   -2.1705 H   0  0
  1  2  1  0
  2  3  1  0
  3  4  1  0
  4  5  1  0
  5  6  1  0
  1  6  1  0
  8  9  1  0
  9 10  1  0
  7 10  1  0
  5  8  1  0
  7  6  1  0
 11 12  1  0
 13 14  1  0
 11 14  1  0
 12  7  1  0
 10 13  1  0
 16 17  1  0
 17 18  1  0
 15 18  1  0
 13 16  1  0
 15 14  1  0
 19 20  1  0
 21 22  1  0
 19 22  1  0
 20 15  1  0
 18 21  1  0
 19 30  1  0
 19 31  1  0
  4 24  1  0
  5 25  1  0
  7 26  1  0
 13 27  1  0
 14 32  1  0
 15 28  1  0
 18 29  1  0
 10 34  1  0
  6 33  1  0
  3 23  1  0
  1 35  1  0
  1 36  1  0
  2 37  1  0
  2 38  1  0
  3 39  1  0
  4 40  1  0
  8 41  1  0
  8 42  1  0
  9 43  1  0
  9 44  1  0
 11 45  1  0
 11 46  1  0
 12 47  1  0
 12 48  1  0
 16 49  1  0
 16 50  1  0
 17 51  1  0
 17 52  1  0
 20 53  1  0
 20 54  1  0
 21 55  1  0
 21 56  1  0
 22 57  1  0
 22 58  1  0
 23 59  1  0
 24 60  1  0
 24 61  1  0
 24 62  1  0
 25 63  1  0
 25 64  1  0
 25 65  1  0
 26 66  1  0
 26 67  1  0
 26 68  1  0
 27 69  1  0
 27 70  1  0
 27 71  1  0
 29 72  1  0
 29 73  1  0
 29 74  1  0
 30 75  1  0
 30 76  1  0
 30 77  1  0
 31 78  1  0
 31 79  1  0
 31 80  1  0
 32 81  1  0
 32 82  1  0
 32 83  1  0
M  END
> <Name>
MGA2019_MQ2

> <Clean Energy>
76.9003

$$$$
MGA2019_MQ3
  SciTegic12132405553D

 83 87  0  0  0  0            999 V2000
   -4.2530   -1.4301   -6.1164 C   0  0
   -5.6950   -0.9931   -6.4349 C   0  0
   -5.7907   -0.2040   -7.7505 C   0  0  2  0  0  0
   -4.9090    1.0595   -7.6433 C   0  0  1  0  0  0
   -3.3723    0.6538   -7.4049 C   0  0  2  0  0  0
   -3.3281   -0.1675   -6.0066 C   0  0  2  0  0  0
   -1.8282   -0.5465   -5.4770 C   0  0  1  0  0  0
   -2.5187    1.9294   -7.1933 C   0  0
   -1.0324    1.6580   -6.7597 C   0  0
   -1.0501    0.9307   -5.3602 C   0  0  2  0  0  0
   -0.4150   -1.2875   -3.3485 C   0  0
   -1.8943   -1.1590   -4.0341 C   0  0
    0.4701    0.8504   -4.6643 C   0  0  2  0  0  0
    0.2858    0.1593   -3.1871 C   0  0  2  0  0  0
    1.8905   -0.0109   -2.5176 C   0  0  1  0  0  0
    1.1223    2.3225   -4.4244 C   0  0
    2.5729    2.1749   -3.8015 C   0  0
    2.6880    1.4294   -2.4220 C   0  0  1  0  0  0
    1.8461    0.0653    0.3315 C   0  0
    2.1749   -0.7261   -1.0524 C   0  0
    2.1931    2.2707   -1.1085 C   0  0
    2.5750    1.4306    0.2452 C   0  0
   -7.1496    0.1817   -7.9412 O   0  0
   -5.1329    1.9151   -8.9299 C   0  0
   -2.8306   -0.1061   -8.7084 C   0  0
   -1.1593   -1.7185   -6.3596 C   0  0
    1.4985    0.0631   -5.6530 C   0  0
    2.3723   -0.6322   -3.2694 H   0  0
    4.2494    1.2590   -2.2893 C   0  0
    0.4070    0.3133    0.7242 C   0  0
    2.3778   -0.7726    1.4916 C   0  0
   -0.7505    1.0361   -2.3463 C   0  0
   -3.7428    0.5096   -5.2475 H   0  0
   -1.6584    1.5510   -4.7096 H   0  0
   -4.2704   -1.9650   -5.1608 H   0  0
   -3.8839   -2.1015   -6.9011 H   0  0
   -6.3348   -1.8831   -6.5019 H   0  0
   -6.0493   -0.3497   -5.6179 H   0  0
   -5.4717   -0.8233   -8.5959 H   0  0
   -5.2521    1.6417   -6.7771 H   0  0
   -2.9699    2.5091   -6.3767 H   0  0
   -2.5352    2.5250   -8.1134 H   0  0
   -0.4869    1.0673   -7.5066 H   0  0
   -0.5493    2.6341   -6.6460 H   0  0
   -0.5286   -1.7282   -2.3491 H   0  0
    0.2234   -1.9381   -3.9555 H   0  0
   -2.3939   -2.1345   -4.0800 H   0  0
   -2.4928   -0.5020   -3.4130 H   0  0
    0.4902    2.9263   -3.7691 H   0  0
    1.2194    2.8317   -5.3908 H   0  0
    3.1444    1.5974   -4.5090 H   0  0
    3.0592    3.1541   -3.7047 H   0  0
    3.2578   -0.8540   -1.0103 H   0  0
    1.7055   -1.7184   -1.0367 H   0  0
    1.1389    2.4840   -1.1396 H   0  0
    2.7455    3.2188   -1.0869 H   0  0
    3.6418    1.2430    0.2139 H   0  0
    2.3533    2.0030    1.1555 H   0  0
   -7.7146   -0.6274   -7.9947 H   0  0
   -4.5453    2.8401   -8.8753 H   0  0
   -6.1981    2.1715   -9.0060 H   0  0
   -4.8404    1.3489   -9.8214 H   0  0
   -1.7941   -0.3603   -8.6000 H   0  0
   -2.9170    0.5477   -9.5809 H   0  0
   -3.4063   -1.0209   -8.8874 H   0  0
   -1.8018   -2.6046   -6.3305 H   0  0
   -0.2082   -2.0048   -5.9663 H   0  0
   -1.0192   -1.4216   -7.3694 H   0  0
    1.5690    0.6020   -6.6051 H   0  0
    1.1904   -0.9163   -5.8370 H   0  0
    2.4922   -0.0095   -5.2262 H   0  0
    4.5347    0.7097   -1.3943 H   0  0
    4.7147    2.2534   -2.2641 H   0  0
    4.6160    0.7083   -3.1661 H   0  0
    0.3973    0.8086    1.7044 H   0  0
   -0.1297   -0.6425    0.7926 H   0  0
   -0.0589    0.9422    0.0531 H   0  0
    2.2249   -0.2289    2.4341 H   0  0
    3.4505   -0.9584    1.3428 H   0  0
    1.8389   -1.7294    1.5261 H   0  0
   -0.9309    0.5532   -1.4330 H   0  0
   -1.7080    1.1415   -2.8312 H   0  0
   -0.3695    2.0326   -2.1720 H   0  0
  1  2  1  0
  2  3  1  0
  3  4  1  0
  4  5  1  0
  5  6  1  0
  1  6  1  0
  8  9  1  0
  9 10  1  0
  7 10  1  0
  5  8  1  0
  7  6  1  0
 11 12  1  0
 13 14  1  0
 11 14  1  0
 12  7  1  0
 10 13  1  0
 16 17  1  0
 17 18  1  0
 15 18  1  0
 13 16  1  0
 15 14  1  0
 19 20  1  0
 21 22  1  0
 19 22  1  0
 20 15  1  0
 18 21  1  0
 19 30  1  0
 19 31  1  0
  4 24  1  0
  5 25  1  0
  7 26  1  0
 13 27  1  0
 14 32  1  0
 15 28  1  0
 18 29  1  0
 10 34  1  0
  6 33  1  0
  3 23  1  0
  1 35  1  0
  1 36  1  0
  2 37  1  0
  2 38  1  0
  3 39  1  0
  4 40  1  0
  8 41  1  0
  8 42  1  0
  9 43  1  0
  9 44  1  0
 11 45  1  0
 11 46  1  0
 12 47  1  0
 12 48  1  0
 16 49  1  0
 16 50  1  0
 17 51  1  0
 17 52  1  0
 20 53  1  0
 20 54  1  0
 21 55  1  0
 21 56  1  0
 22 57  1  0
 22 58  1  0
 23 59  1  0
 24 60  1  0
 24 61  1  0
 24 62  1  0
 25 63  1  0
 25 64  1  0
 25 65  1  0
 26 66  1  0
 26 67  1  0
 26 68  1  0
 27 69  1  0
 27 70  1  0
 27 71  1  0
 29 72  1  0
 29 73  1  0
 29 74  1  0
 30 75  1  0
 30 76  1  0
 30 77  1  0
 31 78  1  0
 31 79  1  0
 31 80  1  0
 32 81  1  0
 32 82  1  0
 32 83  1  0
M  END
> <Name>
MGA2019_MQ3

> <Clean Energy>
69.3257

$$$$
MGA2019_MQ4
  SciTegic12132405553D

 80 84  0  0  0  0            999 V2000
   -3.9828    0.3832   -2.0680 C   0  0
   -4.7018    1.7308   -1.8342 C   0  0
   -3.6991    2.8218   -1.9436 C   0  0
   -2.5868    2.8101   -0.9612 C   0  0  1  0  0  0
   -1.7460    1.5039   -1.2376 C   0  0  2  0  0  0
   -2.7834    0.2356   -1.0542 C   0  0  2  0  0  0
   -2.0835   -1.2514   -1.1422 C   0  0  1  0  0  0
   -0.6488    1.3289   -0.1590 C   0  0
   -0.0113   -0.0231   -0.3312 C   0  0
   -0.9104   -1.2018    0.0122 C   0  0  2  0  0  0
   -2.3713   -3.8152   -0.4858 C   0  0
   -3.1050   -2.3671   -0.7288 C   0  0
   -0.1270   -2.6307    0.3202 C   0  0  2  0  0  0
   -1.2793   -3.7249    0.7172 C   0  0  2  0  0  0
   -0.4546   -5.2519    0.9273 C   0  0  1  0  0  0
    0.8935   -2.5193    1.5746 C   0  0
    1.6362   -3.9068    1.7821 C   0  0
    0.7368   -5.1686    2.0667 C   0  0  1  0  0  0
   -1.8185   -6.9334    2.7802 C   0  0
   -1.2516   -6.6584    1.2793 C   0  0
    0.0986   -5.2715    3.5700 C   0  0
   -0.6254   -6.7301    3.7495 C   0  0
   -3.8242    3.7347   -2.7669 O   0  0
   -1.7924    4.1480   -1.0150 C   0  0
   -1.0469    1.6478   -2.6613 C   0  0
   -1.6592   -1.6286   -2.6440 C   0  0
    0.7728   -3.0597   -0.9695 C   0  0
    0.0013   -5.3871   -0.0500 H   0  0
    1.7884   -6.3359    1.9403 C   0  0
   -2.9944   -6.1311    3.2910 C   0  0
   -2.3344   -8.3693    2.8333 C   0  0
   -2.0886   -3.1743    1.9783 C   0  0
   -3.1685    0.3179   -0.0289 H   0  0
   -1.4584   -0.9064    0.9022 H   0  0
    1.2047   -0.1325   -0.5172 O   0  0
   -4.7097   -0.4244   -1.9233 H   0  0
   -3.5987    0.3463   -3.0945 H   0  0
   -5.5249    1.8661   -2.5488 H   0  0
   -5.0740    1.7009   -0.8007 H   0  0
   -3.0144    2.6678    0.0410 H   0  0
   -1.1839    1.3171    0.8005 H   0  0
    0.0827    2.1459   -0.1957 H   0  0
   -3.1349   -4.5524   -0.2040 H   0  0
   -1.8784   -4.1441   -1.4073 H   0  0
   -3.8921   -2.4363   -1.4900 H   0  0
   -3.5661   -2.0740    0.2070 H   0  0
    0.3620   -2.2334    2.4855 H   0  0
    1.6495   -1.7561    1.3498 H   0  0
    2.1578   -4.1063    0.8606 H   0  0
    2.3885   -3.8335    2.5781 H   0  0
   -0.5025   -7.4420    1.1530 H   0  0
   -2.0499   -6.8165    0.5425 H   0  0
   -0.5964   -4.4749    3.7689 H   0  0
    0.9231   -5.2101    4.2919 H   0  0
    0.1202   -7.4856    3.5310 H   0  0
   -0.9800   -6.8845    4.7770 H   0  0
   -0.9835    4.1337   -0.2726 H   0  0
   -2.4760    4.9776   -0.7886 H   0  0
   -1.3675    4.2986   -2.0149 H   0  0
   -0.4409    0.7863   -2.8778 H   0  0
   -0.3902    2.5233   -2.6627 H   0  0
   -1.8016    1.7636   -3.4483 H   0  0
   -2.5459   -1.6046   -3.2864 H   0  0
   -1.2561   -2.6174   -2.6950 H   0  0
   -0.9302   -0.9530   -3.0272 H   0  0
    1.5153   -2.2795   -1.1652 H   0  0
    0.1842   -3.1969   -1.8248 H   0  0
    1.2936   -3.9967   -0.8068 H   0  0
    1.3376   -7.3187    2.0627 H   0  0
    2.5651   -6.1992    2.7044 H   0  0
    2.2466   -6.2860    0.9432 H   0  0
   -3.2545   -6.4997    4.2923 H   0  0
   -3.8533   -6.2616    2.6192 H   0  0
   -2.7534   -5.1324    3.3796 H   0  0
   -2.6644   -8.6007    3.8555 H   0  0
   -1.5271   -9.0556    2.5421 H   0  0
   -3.1793   -8.4782    2.1394 H   0  0
   -2.8772   -3.8363    2.1825 H   0  0
   -2.5359   -2.2085    1.8073 H   0  0
   -1.4479   -3.0799    2.8434 H   0  0
  1  2  1  0
  2  3  1  0
  3  4  1  0
  4  5  1  0
  5  6  1  0
  1  6  1  0
  8  9  1  0
  9 10  1  0
  7 10  1  0
  5  8  1  0
  7  6  1  0
 11 12  1  0
 13 14  1  0
 11 14  1  0
 12  7  1  0
 10 13  1  0
 16 17  1  0
 17 18  1  0
 15 18  1  0
 13 16  1  0
 15 14  1  0
 19 20  1  0
 21 22  1  0
 19 22  1  0
 20 15  1  0
 18 21  1  0
 19 30  1  0
 19 31  1  0
  4 24  1  0
  5 25  1  0
  7 26  1  0
 13 27  1  0
 14 32  1  0
 15 28  1  0
 18 29  1  0
 10 34  1  0
  6 33  1  0
  3 23  2  0
  9 35  2  0
  1 36  1  0
  1 37  1  0
  2 38  1  0
  2 39  1  0
  4 40  1  0
  8 41  1  0
  8 42  1  0
 11 43  1  0
 11 44  1  0
 12 45  1  0
 12 46  1  0
 16 47  1  0
 16 48  1  0
 17 49  1  0
 17 50  1  0
 20 51  1  0
 20 52  1  0
 21 53  1  0
 21 54  1  0
 22 55  1  0
 22 56  1  0
 24 57  1  0
 24 58  1  0
 24 59  1  0
 25 60  1  0
 25 61  1  0
 25 62  1  0
 26 63  1  0
 26 64  1  0
 26 65  1  0
 27 66  1  0
 27 67  1  0
 27 68  1  0
 29 69  1  0
 29 70  1  0
 29 71  1  0
 30 72  1  0
 30 73  1  0
 30 74  1  0
 31 75  1  0
 31 76  1  0
 31 77  1  0
 32 78  1  0
 32 79  1  0
 32 80  1  0
M  END
> <Name>
MGA2019_MQ4

> <Clean Energy>
119.094

$$$$
MGA2019_MQ6
  SciTegic12132405553D

 82 86  0  0  0  0            999 V2000
   -3.9338    0.2485   -2.1023 C   0  0
   -4.7469    1.5395   -1.7646 C   0  0
   -3.9205    2.8362   -1.8955 C   0  0  1  0  0  0
   -2.6983    2.7040   -0.9013 C   0  0  1  0  0  0
   -1.7476    1.4353   -1.2021 C   0  0  2  0  0  0
   -2.7291    0.1244   -1.0897 C   0  0  2  0  0  0
   -1.9612   -1.3248   -1.2055 C   0  0  1  0  0  0
   -0.6849    1.2828   -0.0844 C   0  0
    0.0287   -0.0319   -0.2740 C   0  0
   -0.8213   -1.2631   -0.0121 C   0  0  2  0  0  0
   -2.1425   -3.9215   -0.6466 C   0  0
   -2.9377   -2.5019   -0.8557 C   0  0
    0.0205   -2.6637    0.2628 C   0  0  2  0  0  0
   -1.0868   -3.8264    0.5856 C   0  0  2  0  0  0
   -0.1953   -5.3198    0.7573 C   0  0  1  0  0  0
    1.0025   -2.5560    1.5483 C   0  0
    1.8059   -3.9140    1.7200 C   0  0
    0.9617   -5.2271    1.9303 C   0  0  1  0  0  0
   -1.5227   -7.1374    2.5049 C   0  0
   -0.9324   -6.7753    1.0320 C   0  0
    0.2921   -5.4208    3.4107 C   0  0
   -0.3652   -6.9180    3.5131 C   0  0
   -3.5983    3.0840   -3.2860 O   0  0
   -1.9255    4.0535   -0.9131 C   0  0
   -0.9304    1.6337   -2.5601 C   0  0
   -1.4933   -1.6325   -2.7125 C   0  0
    0.9709   -2.9943   -1.0183 C   0  0
    0.2907   -5.3933   -0.2122 H   0  0
    2.0711   -6.3374    1.7859 C   0  0
   -2.7480   -6.4125    3.0150 C   0  0
   -1.9703   -8.5969    2.4873 C   0  0
   -1.9528   -3.3648    1.8452 C   0  0
   -3.1417    0.1547   -0.0722 H   0  0
   -1.4080   -1.0290    0.8714 H   0  0
    1.2554   -0.0745   -0.4120 O   0  0
   -4.6065   -0.6067   -1.9764 H   0  0
   -3.5690    0.2772   -3.1373 H   0  0
   -5.6243    1.6121   -2.4209 H   0  0
   -5.0795    1.4450   -0.7216 H   0  0
   -4.5317    3.6863   -1.5637 H   0  0
   -3.1280    2.5489    0.0979 H   0  0
   -1.2548    1.2147    0.8524 H   0  0
    0.0057    2.1352   -0.0680 H   0  0
   -2.8763   -4.7041   -0.4118 H   0  0
   -1.6124   -4.1919   -1.5663 H   0  0
   -3.7023   -2.5806   -1.6385 H   0  0
   -3.4343   -2.2645    0.0777 H   0  0
    0.4354   -2.3332    2.4552 H   0  0
    1.7263   -1.7496    1.3747 H   0  0
    2.3589   -4.0506    0.8053 H   0  0
    2.5338   -3.8380    2.5380 H   0  0
   -0.1437   -7.5171    0.8950 H   0  0
   -1.7035   -6.9406    0.2683 H   0  0
   -0.4452   -4.6665    3.6220 H   0  0
    1.0944   -5.3501    4.1562 H   0  0
    0.4210   -7.6281    3.2850 H   0  0
   -0.7375   -7.1305    4.5239 H   0  0
   -3.1907    2.3365   -3.7109 H   0  0
   -1.1061    4.0281   -0.1841 H   0  0
   -2.6196    4.8622   -0.6467 H   0  0
   -1.5193    4.2470   -1.9137 H   0  0
   -0.2660    0.8022   -2.7295 H   0  0
   -0.3170    2.5378   -2.4905 H   0  0
   -1.5843    1.7180   -3.3999 H   0  0
   -2.3701   -1.6268   -3.3691 H   0  0
   -1.0439   -2.6013   -2.7874 H   0  0
   -0.7906   -0.9146   -3.0629 H   0  0
    1.6791   -2.1718   -1.1621 H   0  0
    0.4106   -3.1227   -1.8939 H   0  0
    1.5327   -3.9115   -0.8800 H   0  0
    1.6652   -7.3445    1.8573 H   0  0
    2.8211   -6.1955    2.5754 H   0  0
    2.5510   -6.2255    0.8042 H   0  0
   -3.0151   -6.8333    3.9937 H   0  0
   -3.5825   -6.5557    2.3156 H   0  0
   -2.5573   -5.4081    3.1493 H   0  0
   -2.3143   -8.8849    3.4903 H   0  0
   -1.1240   -9.2322    2.1911 H   0  0
   -2.7914   -8.7169    1.7672 H   0  0
   -2.7135   -4.0707    2.0029 H   0  0
   -2.4417   -2.4151    1.6994 H   0  0
   -1.3390   -3.2747    2.7302 H   0  0
  1  2  1  0
  2  3  1  0
  3  4  1  0
  4  5  1  0
  5  6  1  0
  1  6  1  0
  8  9  1  0
  9 10  1  0
  7 10  1  0
  5  8  1  0
  7  6  1  0
 11 12  1  0
 13 14  1  0
 11 14  1  0
 12  7  1  0
 10 13  1  0
 16 17  1  0
 17 18  1  0
 15 18  1  0
 13 16  1  0
 15 14  1  0
 19 20  1  0
 21 22  1  0
 19 22  1  0
 20 15  1  0
 18 21  1  0
  4 24  1  0
  5 25  1  0
  7 26  1  0
 13 27  1  0
 14 32  1  0
 15 28  1  0
 18 29  1  0
 10 34  1  0
  6 33  1  0
 19 30  1  0
 19 31  1  0
  9 35  2  0
  3 23  1  0
  1 36  1  0
  1 37  1  0
  2 38  1  0
  2 39  1  0
  3 40  1  0
  4 41  1  0
  8 42  1  0
  8 43  1  0
 11 44  1  0
 11 45  1  0
 12 46  1  0
 12 47  1  0
 16 48  1  0
 16 49  1  0
 17 50  1  0
 17 51  1  0
 20 52  1  0
 20 53  1  0
 21 54  1  0
 21 55  1  0
 22 56  1  0
 22 57  1  0
 23 58  1  0
 24 59  1  0
 24 60  1  0
 24 61  1  0
 25 62  1  0
 25 63  1  0
 25 64  1  0
 26 65  1  0
 26 66  1  0
 26 67  1  0
 27 68  1  0
 27 69  1  0
 27 70  1  0
 29 71  1  0
 29 72  1  0
 29 73  1  0
 30 74  1  0
 30 75  1  0
 30 76  1  0
 31 77  1  0
 31 78  1  0
 31 79  1  0
 32 80  1  0
 32 81  1  0
 32 82  1  0
M  END
> <Name>
MGA2019_MQ6

> <Clean Energy>
100.837

$$$$
MGA2019_MQ7
  SciTegic12132405553D

 82 86  0  0  0  0            999 V2000
   -3.9233    0.2590   -2.0878 C   0  0
   -4.7266    1.5432   -1.7977 C   0  0
   -3.8593    2.8140   -1.8842 C   0  0  2  0  0  0
   -2.7138    2.7142   -0.8508 C   0  0  1  0  0  0
   -1.7864    1.4471   -1.1678 C   0  0  2  0  0  0
   -2.7488    0.1287   -1.0620 C   0  0  2  0  0  0
   -1.9741   -1.3199   -1.1917 C   0  0  1  0  0  0
   -0.7048    1.2836   -0.0673 C   0  0
    0.0088   -0.0257   -0.2762 C   0  0
   -0.8344   -1.2603   -0.0054 C   0  0  2  0  0  0
   -2.1493   -3.9195   -0.6447 C   0  0
   -2.9482   -2.5005   -0.8487 C   0  0
    0.0125   -2.6602    0.2659 C   0  0  2  0  0  0
   -1.0925   -3.8253    0.5881 C   0  0  2  0  0  0
   -0.1982   -5.3173    0.7569 C   0  0  1  0  0  0
    0.9957   -2.5516    1.5502 C   0  0
    1.8018   -3.9089    1.7202 C   0  0
    0.9597   -5.2242    1.9294 C   0  0  1  0  0  0
   -1.5213   -7.1400    2.5026 C   0  0
   -0.9326   -6.7743    1.0298 C   0  0
    0.2914   -5.4218    3.4100 C   0  0
   -0.3634   -6.9203    3.5103 C   0  0
   -4.6808    3.9362   -1.5723 O   0  0
   -1.9325    4.0648   -0.8554 C   0  0
   -1.0442    1.6739   -2.5665 C   0  0
   -1.4986   -1.6180   -2.6971 C   0  0
    0.9637   -2.9891   -1.0160 C   0  0
    0.2872   -5.3886   -0.2129 H   0  0
    2.0708   -6.3325    1.7826 C   0  0
   -2.7474   -6.4181    3.0153 C   0  0
   -1.9668   -8.6001    2.4825 C   0  0
   -1.9582   -3.3678    1.8493 C   0  0
   -3.1614    0.1473   -0.0442 H   0  0
   -1.4187   -1.0295    0.8805 H   0  0
    1.2335   -0.0643   -0.4305 O   0  0
   -4.6040   -0.5935   -1.9858 H   0  0
   -3.5285    0.2880   -3.1107 H   0  0
   -5.5516    1.6215   -2.5183 H   0  0
   -5.1361    1.4721   -0.7808 H   0  0
   -3.4541    2.9361   -2.8947 H   0  0
   -3.1625    2.5771    0.1425 H   0  0
   -1.2608    1.2052    0.8771 H   0  0
   -0.0154    2.1368   -0.0520 H   0  0
   -2.8815   -4.7042   -0.4121 H   0  0
   -1.6189   -4.1859   -1.5654 H   0  0
   -3.7128   -2.5771   -1.6318 H   0  0
   -3.4453   -2.2687    0.0859 H   0  0
    0.4288   -2.3308    2.4579 H   0  0
    1.7177   -1.7434    1.3767 H   0  0
    2.3546   -4.0436    0.8052 H   0  0
    2.5301   -3.8326    2.5379 H   0  0
   -0.1428   -7.5146    0.8910 H   0  0
   -1.7040   -6.9395    0.2664 H   0  0
   -0.4469   -4.6691    3.6232 H   0  0
    1.0942   -5.3510    4.1551 H   0  0
    0.4238   -7.6287    3.2803 H   0  0
   -0.7346   -7.1353    4.5209 H   0  0
   -5.4208    3.9911   -2.2251 H   0  0
   -1.1290    4.0385   -0.1086 H   0  0
   -2.6268    4.8785   -0.6065 H   0  0
   -1.5040    4.2553   -1.8460 H   0  0
   -0.3895    0.8512   -2.7883 H   0  0
   -0.4306    2.5783   -2.5183 H   0  0
   -1.7742    1.7782   -3.3768 H   0  0
   -2.3714   -1.6111   -3.3588 H   0  0
   -1.0470   -2.5842   -2.7756 H   0  0
   -0.7951   -0.8954   -3.0378 H   0  0
    1.6703   -2.1652   -1.1599 H   0  0
    0.4039   -3.1189   -1.8915 H   0  0
    1.5273   -3.9051   -0.8782 H   0  0
    1.6667   -7.3405    1.8527 H   0  0
    2.8212   -6.1907    2.5717 H   0  0
    2.5498   -6.2183    0.8007 H   0  0
   -3.0130   -6.8412    3.9934 H   0  0
   -3.5824   -6.5612    2.3164 H   0  0
   -2.5584   -5.4135    3.1515 H   0  0
   -2.3095   -8.8906    3.4853 H   0  0
   -1.1199   -9.2335    2.1844 H   0  0
   -2.7883   -8.7198    1.7628 H   0  0
   -2.7174   -4.0755    2.0062 H   0  0
   -2.4491   -2.4188    1.7060 H   0  0
   -1.3437   -3.2783    2.7338 H   0  0
  1  2  1  0
  2  3  1  0
  3  4  1  0
  4  5  1  0
  5  6  1  0
  1  6  1  0
  8  9  1  0
  9 10  1  0
  7 10  1  0
  5  8  1  0
  7  6  1  0
 11 12  1  0
 13 14  1  0
 11 14  1  0
 12  7  1  0
 10 13  1  0
 16 17  1  0
 17 18  1  0
 15 18  1  0
 13 16  1  0
 15 14  1  0
 19 20  1  0
 21 22  1  0
 19 22  1  0
 20 15  1  0
 18 21  1  0
  4 24  1  0
  5 25  1  0
  7 26  1  0
 13 27  1  0
 14 32  1  0
 15 28  1  0
 18 29  1  0
 10 34  1  0
  6 33  1  0
 19 30  1  0
 19 31  1  0
  9 35  2  0
  3 23  1  0
  1 36  1  0
  1 37  1  0
  2 38  1  0
  2 39  1  0
  3 40  1  0
  4 41  1  0
  8 42  1  0
  8 43  1  0
 11 44  1  0
 11 45  1  0
 12 46  1  0
 12 47  1  0
 16 48  1  0
 16 49  1  0
 17 50  1  0
 17 51  1  0
 20 52  1  0
 20 53  1  0
 21 54  1  0
 21 55  1  0
 22 56  1  0
 22 57  1  0
 23 58  1  0
 24 59  1  0
 24 60  1  0
 24 61  1  0
 25 62  1  0
 25 63  1  0
 25 64  1  0
 26 65  1  0
 26 66  1  0
 26 67  1  0
 27 68  1  0
 27 69  1  0
 27 70  1  0
 29 71  1  0
 29 72  1  0
 29 73  1  0
 30 74  1  0
 30 75  1  0
 30 76  1  0
 31 77  1  0
 31 78  1  0
 31 79  1  0
 32 80  1  0
 32 81  1  0
 32 82  1  0
M  END
> <Name>
MGA2019_MQ7

> <Clean Energy>
93.3492

$$$$
MGA2019_MQ14
  SciTegic12132405553D

 82 86  0  0  0  0            999 V2000
   -1.2690    1.6995    0.8426 C   0  0
   -2.1160    1.0283    2.0437 C   0  0  1  0  0  0
   -1.7250   -0.5608    2.3817 C   0  0  2  0  0  0
   -1.5746   -1.2851    1.0352 C   0  0  1  0  0  0
   -0.2779   -0.9504    0.3553 O   0  0
    0.6070    0.2244    0.3783 C   0  0
    0.1977    1.6456    0.7740 C   0  0
   -1.6788   -2.9248    1.1643 C   0  0
   -3.0751   -1.0907    3.2132 C   0  0  1  0  0  0
   -3.1305   -2.7331    3.4612 C   0  0  2  0  0  0
   -3.1398   -3.3764    1.7795 C   0  0  2  0  0  0
   -3.6341   -5.0884    1.6242 C   0  0  1  0  0  0
   -4.3264   -3.3481    4.0037 C   0  0
   -4.0686   -5.0496    4.1370 C   0  0
   -3.1977   -5.8358    2.8476 C   0  0  1  0  0  0
   -5.5454   -6.9488    1.3540 C   0  0
   -5.2704   -5.4131    1.4877 C   0  0
   -3.5005   -7.3677    2.8182 C   0  0
   -5.0232   -7.6344    2.6382 C   0  0
   -2.2845    1.9362    3.4076 C   0  0  2  0  0  0
   -3.4228    1.2238    4.2144 C   0  0
   -3.2147   -0.2709    4.5593 C   0  0
   -4.8903   -7.5422    0.0647 C   0  0
   -7.0488   -7.1818    1.2401 C   0  0
   -1.6253   -5.8615    2.9233 C   0  0
   -4.2295   -2.7352    0.7705 C   0  0
   -2.0268   -3.1279    4.6855 C   0  0
   -0.3233   -0.8641    3.1611 C   0  0
   -2.8290    3.3773    2.9900 C   0  0
   -3.1864    4.3375    4.1731 C   0  0
   -0.9799    2.1835    4.2646 C   0  0
    1.7506    0.0743   -0.0639 O   0  0
   -2.3973   -0.9824    0.4025 H   0  0
   -3.9358   -0.8584    2.5895 H   0  0
   -3.2378   -5.4606    0.6757 H   0  0
   -3.1232    1.0245    1.6056 H   0  0
   -1.5539    1.1943   -0.0889 H   0  0
   -1.5959    2.7341    0.7630 H   0  0
    0.6755    1.9862    1.7026 H   0  0
    0.5636    2.2921   -0.0349 H   0  0
   -0.8641   -3.3363    1.7657 H   0  0
   -1.6089   -3.3174    0.1419 H   0  0
   -5.1221   -3.1389    3.2887 H   0  0
   -4.6181   -2.9541    4.9858 H   0  0
   -3.5993   -5.3758    5.0754 H   0  0
   -5.1103   -5.3736    4.1634 H   0  0
   -5.6708   -4.9319    0.5900 H   0  0
   -5.8254   -5.0493    2.3414 H   0  0
   -3.1545   -7.8301    3.7518 H   0  0
   -2.9548   -7.8091    1.9765 H   0  0
   -5.2120   -8.7147    2.5865 H   0  0
   -5.5633   -7.2193    3.4932 H   0  0
   -3.6151    1.7874    5.1342 H   0  0
   -4.3220    1.2441    3.5835 H   0  0
   -2.3376   -0.4125    5.2020 H   0  0
   -4.1136   -0.6103    5.0896 H   0  0
   -5.1211   -8.6145    0.0072 H   0  0
   -3.8031   -7.4093    0.0750 H   0  0
   -5.3057   -7.0310   -0.8141 H   0  0
   -7.2456   -8.2603    1.1677 H   0  0
   -7.4280   -6.6762    0.3414 H   0  0
   -7.5474   -6.7745    2.1307 H   0  0
   -1.2404   -6.3862    2.0388 H   0  0
   -1.3258   -6.4068    3.8278 H   0  0
   -1.1953   -4.8884    2.9545 H   0  0
   -4.1032   -3.1843   -0.2242 H   0  0
   -4.1231   -1.6610    0.6850 H   0  0
   -5.2409   -2.9138    1.1268 H   0  0
   -1.9530   -4.1621    4.9215 H   0  0
   -2.3239   -2.6115    5.6043 H   0  0
   -1.0636   -2.8464    4.4491 H   0  0
   -0.1638   -1.9178    3.2419 H   0  0
   -0.3422   -0.4468    4.1501 H   0  0
    0.5152   -0.4667    2.6514 H   0  0
   -2.0719    3.8776    2.3753 H   0  0
   -3.7398    3.2324    2.3930 H   0  0
   -3.5542    5.2873    3.7612 H   0  0
   -2.2993    4.5361    4.7867 H   0  0
   -3.9706    3.8914    4.7985 H   0  0
   -0.2345    2.7014    3.6470 H   0  0
   -0.5690    1.2744    4.6243 H   0  0
   -1.2170    2.8006    5.1351 H   0  0
  1  2  1  0
  2  3  1  0
  3  4  1  0
  4  5  1  0
  5  6  1  0
  6  7  1  0
  1  7  1  0
  9 10  1  0
 10 11  1  0
  8 11  1  0
  8  4  1  0
  3  9  1  0
 13 14  1  0
 14 15  1  0
 12 15  1  0
 10 13  1  0
 12 11  1  0
 16 17  1  0
 18 19  1  0
 16 19  1  0
 17 12  1  0
 15 18  1  0
 20 21  1  0
 21 22  1  0
 22  9  1  0
  2 20  1  0
 16 23  1  0
 16 24  1  0
 20 29  1  0
 29 30  1  0
  6 32  2  0
 15 25  1  0
 12 35  1  0
 11 26  1  0
  9 34  1  0
 10 27  1  0
  3 28  1  0
 20 31  1  0
  4 33  1  0
  2 36  1  0
  1 37  1  0
  1 38  1  0
  7 39  1  0
  7 40  1  0
  8 41  1  0
  8 42  1  0
 13 43  1  0
 13 44  1  0
 14 45  1  0
 14 46  1  0
 17 47  1  0
 17 48  1  0
 18 49  1  0
 18 50  1  0
 19 51  1  0
 19 52  1  0
 21 53  1  0
 21 54  1  0
 22 55  1  0
 22 56  1  0
 23 57  1  0
 23 58  1  0
 23 59  1  0
 24 60  1  0
 24 61  1  0
 24 62  1  0
 25 63  1  0
 25 64  1  0
 25 65  1  0
 26 66  1  0
 26 67  1  0
 26 68  1  0
 27 69  1  0
 27 70  1  0
 27 71  1  0
 28 72  1  0
 28 73  1  0
 28 74  1  0
 29 75  1  0
 29 76  1  0
 30 77  1  0
 30 78  1  0
 30 79  1  0
 31 80  1  0
 31 81  1  0
 31 82  1  0
M  END
> <Name>
MGA2019_MQ14

> <Clean Energy>
204.971

$$$$
MGA2019_MQ15
  SciTegic12132405553D

 83 87  0  0  0  0            999 V2000
    4.4323   -2.8097    0.4115 C   0  0
    3.2389   -2.7371    1.4684 C   0  0  1  0  0  0
    3.4958   -3.5197    2.9059 C   0  0  2  0  0  0
    3.7302   -5.0511    2.6833 C   0  0  1  0  0  0
    4.9989   -5.3200    2.1845 O   0  0
    5.5071   -5.0457    0.9765 C   0  0
    4.8519   -4.2213   -0.0578 C   0  0
    3.5815   -5.9673    4.0336 C   0  0
    2.0277   -3.3400    3.7219 C   0  0  1  0  0  0
    1.9373   -4.1680    5.1558 C   0  0  2  0  0  0
    2.0766   -5.8711    4.6457 C   0  0  2  0  0  0
    1.5637   -7.0823    5.8657 C   0  0  1  0  0  0
    0.6909   -4.1997    5.8988 C   0  0
    0.9138   -5.1163    7.3432 C   0  0
    1.8741   -6.5614    7.2358 C   0  0  1  0  0  0
   -0.3614   -8.5497    7.0230 C   0  0
   -0.0628   -7.4836    5.9200 C   0  0
    1.5394   -7.5485    8.4006 C   0  0
    0.0308   -7.9379    8.3886 C   0  0
    2.7667   -1.1514    1.6517 C   0  0  2  0  0  0
    1.5053   -1.1679    2.5430 C   0  0
    1.6788   -1.8259    3.9247 C   0  0
    0.3880   -9.8917    6.7450 C   0  0
   -1.8553   -8.8614    7.0254 C   0  0
    3.4314   -6.4291    7.4177 C   0  0
    1.1022   -6.3454    3.4442 C   0  0
    2.9346   -3.3906    6.2650 C   0  0
    4.8305   -3.0327    3.6423 C   0  0
    2.3491   -0.5579    0.2441 C   0  0
    1.7928    0.8482    0.2962 C   0  0
    3.8501   -0.1675    2.2329 C   0  0
    6.6418   -5.4672    0.7297 O   0  0
    2.9799   -5.3921    1.9841 H   0  0
    1.2531   -3.7522    3.0793 H   0  0
    2.0356   -8.0338    5.6053 H   0  0
    2.3720   -3.2388    1.0170 H   0  0
    1.5718    1.3133    1.2235 H   0  0
    1.5886    1.5101   -0.8385 C   0  0
    1.8151    1.0498   -1.7672 H   0  0
    1.2016    2.4973   -0.8150 H   0  0
    4.0970   -2.3142   -0.4946 H   0  0
    5.3148   -2.2838    0.7988 H   0  0
    5.5675   -4.1170   -0.8846 H   0  0
    3.9406   -4.7228   -0.4139 H   0  0
    4.3280   -5.6970    4.7850 H   0  0
    3.7433   -7.0061    3.7191 H   0  0
   -0.0364   -4.6836    5.2472 H   0  0
    0.3170   -3.2045    6.1704 H   0  0
    1.2949   -4.5480    8.2030 H   0  0
   -0.1313   -5.3539    7.5459 H   0  0
   -0.3719   -7.9125    4.9618 H   0  0
   -0.6829   -6.6206    6.1185 H   0  0
    1.7906   -7.0831    9.3625 H   0  0
    2.1463   -8.4517    8.2702 H   0  0
   -0.1790   -8.6558    9.1921 H   0  0
   -0.5717   -7.0397    8.5480 H   0  0
    1.1558   -0.1382    2.6745 H   0  0
    0.7311   -1.7505    2.0250 H   0  0
    2.4427   -1.3125    4.5210 H   0  0
    0.7111   -1.7565    4.4354 H   0  0
    0.1367  -10.6119    7.5351 H   0  0
    1.4728   -9.7434    6.7260 H   0  0
    0.0627  -10.2867    5.7730 H   0  0
   -2.0736   -9.5947    7.8135 H   0  0
   -2.1424   -9.2732    6.0480 H   0  0
   -2.4180   -7.9365    7.2154 H   0  0
    3.8821   -7.4253    7.3152 H   0  0
    3.6360   -6.0399    8.4236 H   0  0
    3.8785   -5.7793    6.7047 H   0  0
    1.3186   -7.3951    3.2028 H   0  0
    1.2337   -5.7480    2.5513 H   0  0
    0.0583   -6.2429    3.7271 H   0  0
    2.9854   -3.8417    7.2265 H   0  0
    2.5743   -2.3677    6.4111 H   0  0
    3.9152   -3.3521    5.9363 H   0  0
    4.9988   -3.6050    4.5367 H   0  0
    4.7803   -2.0014    3.9051 H   0  0
    5.6872   -3.1925    2.9817 H   0  0
    3.1952   -0.5457   -0.4497 H   0  0
    1.5756   -1.2023   -0.1961 H   0  0
    4.7239   -0.1503    1.5690 H   0  0
    4.1533   -0.4618    3.2170 H   0  0
    3.4302    0.8415    2.3013 H   0  0
  1  2  1  0
  2  3  1  0
  3  4  1  0
  5  6  1  0
  6  7  1  0
  1  7  1  0
  9 10  1  0
 10 11  1  0
  8 11  1  0
  8  4  1  0
  3  9  1  0
 13 14  1  0
 14 15  1  0
 12 15  1  0
 10 13  1  0
 12 11  1  0
 16 17  1  0
 18 19  1  0
 16 19  1  0
 17 12  1  0
 15 18  1  0
 20 21  1  0
 21 22  1  0
 22  9  1  0
  2 20  1  0
 16 23  1  0
 16 24  1  0
 20 29  1  0
 29 30  1  0
  6 32  2  0
 15 25  1  0
 12 35  1  0
 11 26  1  0
  9 34  1  0
 10 27  1  0
  3 28  1  0
 20 31  1  0
  4 33  1  0
  2 36  1  0
  4  5  1  0
 30 37  1  0
 38 39  1  0
 38 40  1  0
 30 38  2  0
  1 41  1  0
  1 42  1  0
  7 43  1  0
  7 44  1  0
  8 45  1  0
  8 46  1  0
 13 47  1  0
 13 48  1  0
 14 49  1  0
 14 50  1  0
 17 51  1  0
 17 52  1  0
 18 53  1  0
 18 54  1  0
 19 55  1  0
 19 56  1  0
 21 57  1  0
 21 58  1  0
 22 59  1  0
 22 60  1  0
 23 61  1  0
 23 62  1  0
 23 63  1  0
 24 64  1  0
 24 65  1  0
 24 66  1  0
 25 67  1  0
 25 68  1  0
 25 69  1  0
 26 70  1  0
 26 71  1  0
 26 72  1  0
 27 73  1  0
 27 74  1  0
 27 75  1  0
 28 76  1  0
 28 77  1  0
 28 78  1  0
 29 79  1  0
 29 80  1  0
 31 81  1  0
 31 82  1  0
 31 83  1  0
M  END
> <Name>
MGA2019_MQ15

> <Clean Energy>
175.141

$$$$
MGA2019_MQ16
  SciTegic12132405553D

 80 83  0  0  0  0            999 V2000
   -2.8349    4.5654    4.7991 C   0  0
   -3.1026    5.5179    5.9907 C   0  0
   -2.5048    4.8496    7.2574 C   0  0  1  0  0  0
   -0.9777    4.6829    7.1056 C   0  0
   -0.6492    3.9021    5.8556 C   0  0
   -1.3122    4.3135    4.5561 C   0  0  1  0  0  0
   -1.1346    3.1970    3.4156 C   0  0  2  0  0  0
    0.2872    2.9510    5.9146 C   0  0
    0.6665    2.1281    4.7118 C   0  0
    0.3339    2.7986    3.3557 C   0  0  1  0  0  0
   -1.4097    2.6006    0.9507 C   0  0
   -1.6516    3.7214    1.9966 C   0  0
    0.5323    1.7611    2.2312 C   0  0  1  0  0  0
    0.1194    2.2457    0.8628 C   0  0  1  0  0  0
    0.4354    0.8612    0.1233 C   0  0  2  0  0  0
    1.9873    1.2718    2.0204 C   0  0
    1.9346    0.6553    0.5780 C   0  0
   -2.7670    5.6582    8.4009 O   0  0
   -0.6046    5.6823    4.1443 C   0  0
    0.9500    3.6801    3.1605 H   0  0
   -0.1053    0.8914    2.4318 H   0  0
    0.9209    3.5066    0.2758 C   0  0
    0.2687    0.6542   -1.4622 C   0  0  2  0  0  0
   -1.1915    0.8987   -1.9549 C   0  0
    0.6687   -0.8354   -1.8121 C   0  0
    0.6726   -1.1188   -3.3488 C   0  0
    0.9758   -2.6135   -3.8387 C   0  0  1  0  0  0
    0.8149   -2.4728   -5.3959 C   0  0
    0.9099   -3.8278   -6.1444 C   0  0
    2.4200   -3.2990   -3.4579 C   0  0
    3.6131   -2.4230   -3.9194 C   0  0
    2.6133   -3.5772   -1.9448 C   0  0
   -1.6878    2.2868    3.6817 H   0  0
   -0.1926    0.1317    0.6494 H   0  0
   -3.3023    3.6051    5.0583 H   0  0
   -3.2952    4.9580    3.8850 H   0  0
   -2.6469    6.5016    5.8275 H   0  0
   -4.1870    5.6353    6.1198 H   0  0
   -2.9711    3.8630    7.3878 H   0  0
   -0.5682    5.6957    6.9936 H   0  0
   -0.5356    4.2031    7.9888 H   0  0
    0.7420    2.7375    6.8473 H   0  0
    1.7162    1.8129    4.7739 H   0  0
    0.0421    1.2274    4.7745 H   0  0
   -1.9531    1.7137    1.3043 H   0  0
   -1.7861    2.8935   -0.0314 H   0  0
   -1.1076    4.6175    1.6973 H   0  0
   -2.7222    3.9527    2.0504 H   0  0
    2.3980    0.6508    2.8276 H   0  0
    2.6095    2.1673    1.9058 H   0  0
    2.5329    1.3467   -0.0261 H   0  0
    2.3397   -0.3582    0.4548 H   0  0
   -2.3471    6.5450    8.2757 H   0  0
   -1.0471    6.0709    3.2207 H   0  0
    0.4673    5.5148    3.9891 H   0  0
   -0.7296    6.4324    4.9313 H   0  0
    0.5576    3.7094   -0.7407 H   0  0
    1.9972    3.3238    0.2322 H   0  0
    0.7501    4.3905    0.8993 H   0  0
    0.9416    1.3552   -1.9743 H   0  0
   -1.4868    1.9242   -1.7311 H   0  0
   -1.8678    0.2002   -1.4440 H   0  0
   -1.2618    0.7493   -3.0369 H   0  0
    1.6704   -1.0241   -1.4557 H   0  0
   -0.0350   -1.5111   -1.3085 H   0  0
   -0.3189   -0.8833   -3.7417 H   0  0
    1.4078   -0.4448   -3.8088 H   0  0
    0.1864   -3.2777   -3.4619 H   0  0
    1.5837   -1.7907   -5.7831 H   0  0
   -0.1756   -2.0437   -5.6003 H   0  0
    0.7699   -3.6547   -7.2210 H   0  0
    0.1237   -4.5014   -5.7771 H   0  0
    1.8925   -4.2871   -5.9806 H   0  0
    2.4727   -4.2752   -3.9526 H   0  0
    4.5514   -2.9428   -3.6794 H   0  0
    3.5859   -1.4598   -3.3914 H   0  0
    3.5627   -2.2503   -5.0008 H   0  0
    3.5753   -4.0852   -1.7954 H   0  0
    1.7986   -4.2246   -1.5881 H   0  0
    2.6171   -2.6540   -1.3804 H   0  0
  1  2  1  0
  2  3  1  0
  3  4  1  0
  4  5  1  0
  5  6  1  0
  1  6  1  0
  8  9  1  0
  9 10  1  0
  7 10  1  0
  7  6  1  0
 11 12  1  0
 13 14  1  0
 11 14  1  0
 12  7  1  0
 10 13  1  0
 16 17  1  0
 15 17  1  0
 15 14  1  0
 13 16  1  0
 23 25  1  0
 25 26  1  0
 26 27  1  0
 28 29  1  0
 27 30  1  0
 30 31  1  0
 30 32  1  0
  3 18  1  0
  6 19  1  0
  5  8  2  0
 10 20  1  0
 13 21  1  0
 27 28  1  0
 14 22  1  0
  7 33  1  0
 23 24  1  0
 15 23  1  0
 15 34  1  0
  1 35  1  0
  1 36  1  0
  2 37  1  0
  2 38  1  0
  3 39  1  0
  4 40  1  0
  4 41  1  0
  8 42  1  0
  9 43  1  0
  9 44  1  0
 11 45  1  0
 11 46  1  0
 12 47  1  0
 12 48  1  0
 16 49  1  0
 16 50  1  0
 17 51  1  0
 17 52  1  0
 18 53  1  0
 19 54  1  0
 19 55  1  0
 19 56  1  0
 22 57  1  0
 22 58  1  0
 22 59  1  0
 23 60  1  0
 24 61  1  0
 24 62  1  0
 24 63  1  0
 25 64  1  0
 25 65  1  0
 26 66  1  0
 26 67  1  0
 27 68  1  0
 28 69  1  0
 28 70  1  0
 29 71  1  0
 29 72  1  0
 29 73  1  0
 30 74  1  0
 31 75  1  0
 31 76  1  0
 31 77  1  0
 32 78  1  0
 32 79  1  0
 32 80  1  0
M  END
> <Name>
MGA2019_MQ16

> <Clean Energy>
113.066

$$$$
MGA2019_MQ18
  SciTegic12132405553D

 82 86  0  0  0  0            999 V2000
   -1.4050    1.2828   -1.4238 C   0  0
   -0.6221    1.2700   -0.0946 C   0  0
    0.0575   -0.0378    0.0354 C   0  0
   -0.8084   -1.2376    0.0825 C   0  0  1  0  0  0
   -1.5510   -1.3318   -1.3122 C   0  0  2  0  0  0
   -2.4029    0.0578   -1.4760 C   0  0  2  0  0  0
   -3.3949    0.1022   -2.7858 C   0  0  1  0  0  0
   -2.5800   -2.4822   -1.2778 C   0  0
   -3.5196   -2.5612   -2.5310 C   0  0
   -4.3836   -1.2390   -2.5890 C   0  0  2  0  0  0
   -5.5465    1.3125   -3.8384 C   0  0
   -4.3493    1.3997   -2.7346 C   0  0  2  0  0  0
   -5.6320   -1.3491   -3.7020 C   0  0  2  0  0  0
   -6.5021    0.0349   -3.5840 C   0  0  2  0  0  0
   -7.7430   -0.0532   -4.8129 C   0  0  1  0  0  0
   -6.6467   -2.5795   -3.3703 C   0  0
   -7.7848   -2.6549   -4.4706 C   0  0
   -8.6986   -1.3869   -4.6446 C   0  0  1  0  0  0
  -10.0543    1.4405   -4.0683 C   0  0
   -8.8155    1.1771   -5.0889 C   0  0
   -9.8215   -1.1409   -3.4771 C   0  0
  -10.8050    0.0909   -3.9254 C   0  0
    1.2805   -0.1177    0.1911 O   0  0
   -3.6253    2.6402   -2.9140 O   0  0
   -9.7757    1.9871   -2.6864 C   0  0
  -10.9529    2.5105   -4.6828 C   0  0
   -9.4873   -1.7498   -5.9598 C   0  0
   -7.0027    0.1865   -2.0741 C   0  0
    0.0222   -2.4876    0.4999 C   0  0
   -0.4554   -1.6449   -2.4313 C   0  0
   -2.5671    0.2303   -4.1603 C   0  0
   -5.0436   -1.6459   -5.1907 C   0  0
   -3.0706    0.1051   -0.6053 H   0  0
   -4.8475   -1.1433   -1.6140 H   0  0
   -7.1461   -0.1560   -5.7162 H   0  0
   -1.9525    2.2254   -1.4796 H   0  0
   -0.7054    1.2191   -2.2656 H   0  0
    0.0930    2.1021   -0.0497 H   0  0
   -1.3756    1.3525    0.7017 H   0  0
   -1.6059   -1.0580    0.8171 H   0  0
   -3.2428   -2.3198   -0.4174 H   0  0
   -2.0453   -3.4311   -1.1503 H   0  0
   -2.9568   -2.7101   -3.4618 H   0  0
   -4.1874   -3.4136   -2.3712 H   0  0
   -6.1676    2.2132   -3.7458 H   0  0
   -5.1206    1.2708   -4.8478 H   0  0
   -4.8018    1.4320   -1.7509 H   0  0
   -7.0896   -2.4622   -2.3789 H   0  0
   -6.0865   -3.5218   -3.3986 H   0  0
   -7.2809   -2.7997   -5.4123 H   0  0
   -8.4325   -3.5254   -4.3044 H   0  0
   -9.3173    0.9051   -6.0191 H   0  0
   -8.2612    2.1105   -5.2516 H   0  0
   -9.3724   -0.9395   -2.5210 H   0  0
  -10.4307   -2.0502   -3.3967 H   0  0
  -11.2197   -0.1688   -4.8920 H   0  0
  -11.6357    0.2262   -3.2200 H   0  0
   -3.2440    2.7132   -3.8170 H   0  0
  -10.7356    2.1439   -2.1770 H   0  0
   -9.2436    2.9449   -2.7661 H   0  0
   -9.2316    1.3176   -2.1247 H   0  0
  -11.8318    2.6611   -4.0410 H   0  0
  -11.2765    2.1829   -5.6804 H   0  0
  -10.3922    3.4516   -4.7674 H   0  0
  -10.1567   -0.9532   -6.2780 H   0  0
  -10.0731   -2.6618   -5.7823 H   0  0
   -8.7613   -1.9347   -6.7627 H   0  0
   -7.4910    1.1071   -1.9766 H   0  0
   -6.1967    0.1916   -1.3581 H   0  0
   -7.6678   -0.6191   -1.7984 H   0  0
   -0.6288   -3.3702    0.5527 H   0  0
    0.4655   -2.3064    1.4884 H   0  0
    0.8257   -2.6695   -0.2238 H   0  0
   -0.9104   -1.7531   -3.3954 H   0  0
    0.0489   -2.5876   -2.1986 H   0  0
    0.2892   -0.8408   -2.4732 H   0  0
   -1.9561    1.1383   -4.1299 H   0  0
   -3.2238    0.3185   -4.9962 H   0  0
   -1.9373   -0.6085   -4.3219 H   0  0
   -4.4906   -2.5926   -5.1796 H   0  0
   -4.4111   -0.8832   -5.5184 H   0  0
   -5.8335   -1.7193   -5.9295 H   0  0
  1  2  1  0
  2  3  1  0
  3  4  1  0
  4  5  1  0
  5  6  1  0
  1  6  1  0
  8  9  1  0
  9 10  1  0
  7 10  1  0
  5  8  1  0
  7  6  1  0
 11 12  1  0
 13 14  1  0
 11 14  1  0
 12  7  1  0
 10 13  1  0
 16 17  1  0
 17 18  1  0
 15 18  1  0
 13 16  1  0
 15 14  1  0
 19 20  1  0
 21 22  1  0
 19 22  1  0
 20 15  1  0
 18 21  1  0
  3 23  2  0
 19 25  1  0
 19 26  1  0
  6 33  1  0
 18 27  1  0
 15 35  1  0
 14 28  1  0
 13 32  1  0
 10 34  1  0
 12 24  1  0
  7 31  1  0
  5 30  1  0
  4 29  1  0
  1 36  1  0
  1 37  1  0
  2 38  1  0
  2 39  1  0
  4 40  1  0
  8 41  1  0
  8 42  1  0
  9 43  1  0
  9 44  1  0
 11 45  1  0
 11 46  1  0
 12 47  1  0
 16 48  1  0
 16 49  1  0
 17 50  1  0
 17 51  1  0
 20 52  1  0
 20 53  1  0
 21 54  1  0
 21 55  1  0
 22 56  1  0
 22 57  1  0
 24 58  1  0
 25 59  1  0
 25 60  1  0
 25 61  1  0
 26 62  1  0
 26 63  1  0
 26 64  1  0
 27 65  1  0
 27 66  1  0
 27 67  1  0
 28 68  1  0
 28 69  1  0
 28 70  1  0
 29 71  1  0
 29 72  1  0
 29 73  1  0
 30 74  1  0
 30 75  1  0
 30 76  1  0
 31 77  1  0
 31 78  1  0
 31 79  1  0
 32 80  1  0
 32 81  1  0
 32 82  1  0
M  END
> <Name>
MGA2019_MQ18

> <Clean Energy>
97.2995

$$$$
MGA2019_MQ19
  SciTegic12132405553D

 84 88  0  0  0  0            999 V2000
   -5.0476   -1.9974   -4.7869 C   0  0
   -6.5606   -1.7136   -4.7972 C   0  0
   -6.9952   -0.8959   -6.0205 C   0  0  2  0  0  0
   -6.2439    0.4515   -6.0147 C   0  0  1  0  0  0
   -4.6560    0.2109   -6.1017 C   0  0  2  0  0  0
   -4.2480   -0.6469   -4.7815 C   0  0  2  0  0  0
   -2.6304   -0.8676   -4.5692 C   0  0  1  0  0  0
   -3.9154    1.5655   -5.9940 C   0  0
   -2.3532    1.4524   -5.8756 C   0  0
   -2.0092    0.6913   -4.5372 C   0  0  2  0  0  0
   -0.7302   -1.4672   -2.7696 C   0  0
   -2.3213   -1.5198   -3.1269 C   0  0  2  0  0  0
   -0.3762    0.7789   -4.1629 C   0  0  2  0  0  0
   -0.1787    0.0500   -2.7085 C   0  0  2  0  0  0
    1.5365    0.0617   -2.3765 C   0  0  1  0  0  0
    0.1427    2.3153   -4.0007 C   0  0
    1.6972    2.3309   -3.6861 C   0  0
    2.1707    1.5844   -2.3873 C   0  0  1  0  0  0
    2.0559    0.0973    0.4282 C   0  0
    2.1867   -0.6337   -1.0218 C   0  0
    1.8591    2.3450   -0.9724 C   0  0
    2.5963    1.5384    0.2478 C   0  0
   -8.3971   -0.6580   -5.9223 O   0  0
   -2.7902   -2.8846   -3.0125 O   0  0
    0.7066    0.1734    1.1080 C   0  0
    2.8987   -0.6881    1.4297 C   0  0
    3.7359    1.5954   -2.5726 C   0  0
   -1.1143    0.7868   -1.6463 C   0  0
   -6.8068    1.3203   -7.1837 C   0  0
   -4.3123   -0.4400   -7.5271 C   0  0
   -2.0253   -1.9035   -5.6452 C   0  0
    0.5156    0.1356   -5.3642 C   0  0
   -4.5729   -0.0457   -3.9215 H   0  0
   -2.5372    1.2209   -3.7515 H   0  0
    1.9244   -0.4894   -3.2305 H   0  0
   -4.8275   -2.5631   -3.8807 H   0  0
   -4.7717   -2.5952   -5.6641 H   0  0
   -7.1061   -2.6666   -4.7901 H   0  0
   -6.8105   -1.1435   -3.8919 H   0  0
   -6.7888   -1.4457   -6.9450 H   0  0
   -6.4655    0.9621   -5.0675 H   0  0
   -4.2518    2.0656   -5.0757 H   0  0
   -4.1782    2.1830   -6.8606 H   0  0
   -1.9085    0.9501   -6.7441 H   0  0
   -1.9659    2.4742   -5.8107 H   0  0
   -0.5837   -1.9119   -1.7764 H   0  0
   -0.1642   -2.0447   -3.5097 H   0  0
   -2.8518   -0.9347   -2.3845 H   0  0
   -0.4070    2.8310   -3.2101 H   0  0
   -0.0153    2.8471   -4.9466 H   0  0
    2.1752    1.8356   -4.5146 H   0  0
    2.0800    3.3590   -3.6506 H   0  0
    3.2635   -0.6351   -1.1988 H   0  0
    1.8436   -1.6740   -0.9489 H   0  0
    0.8028    2.4345   -0.7865 H   0  0
    2.2953    3.3506   -1.0267 H   0  0
    3.6492    1.4762   -0.0008 H   0  0
    2.4996    2.0697    1.2038 H   0  0
   -8.8755   -1.5227   -5.9110 H   0  0
   -2.2998   -3.4909   -3.6106 H   0  0
    0.8403    0.6520    2.0874 H   0  0
    0.3030   -0.8383    1.2480 H   0  0
    0.0480    0.7535    0.5656 H   0  0
    2.8789   -0.1774    2.4024 H   0  0
    3.9335   -0.7471    1.0652 H   0  0
    2.4867   -1.7010    1.5364 H   0  0
    4.2544    1.0706   -1.7725 H   0  0
    4.0832    2.6367   -2.6032 H   0  0
    3.9781    1.1033   -3.5243 H   0  0
   -1.0489    0.2737   -0.7344 H   0  0
   -2.1559    0.7843   -1.9245 H   0  0
   -0.8213    1.8188   -1.5147 H   0  0
   -6.3185    2.3027   -7.1932 H   0  0
   -7.8863    1.4584   -7.0365 H   0  0
   -6.6414    0.8212   -8.1451 H   0  0
   -3.2562   -0.5800   -7.6401 H   0  0
   -4.6395    0.2290   -8.3279 H   0  0
   -4.8149   -1.4068   -7.6400 H   0  0
   -2.5447   -2.8629   -5.5538 H   0  0
   -0.9904   -2.0858   -5.4611 H   0  0
   -2.1254   -1.5471   -6.6386 H   0  0
    0.3307    0.6924   -6.2903 H   0  0
    0.2919   -0.8705   -5.5191 H   0  0
    1.5763    0.1760   -5.1461 H   0  0
  1  2  1  0
  2  3  1  0
  3  4  1  0
  4  5  1  0
  5  6  1  0
  1  6  1  0
  8  9  1  0
  9 10  1  0
  7 10  1  0
  5  8  1  0
  7  6  1  0
 11 12  1  0
 13 14  1  0
 11 14  1  0
 12  7  1  0
 10 13  1  0
 16 17  1  0
 17 18  1  0
 15 18  1  0
 13 16  1  0
 15 14  1  0
 19 20  1  0
 21 22  1  0
 19 22  1  0
 20 15  1  0
 18 21  1  0
 19 25  1  0
 19 26  1  0
  6 33  1  0
 18 27  1  0
 15 35  1  0
 14 28  1  0
 13 32  1  0
 10 34  1  0
 12 24  1  0
  7 31  1  0
  5 30  1  0
  4 29  1  0
  3 23  1  0
  1 36  1  0
  1 37  1  0
  2 38  1  0
  2 39  1  0
  3 40  1  0
  4 41  1  0
  8 42  1  0
  8 43  1  0
  9 44  1  0
  9 45  1  0
 11 46  1  0
 11 47  1  0
 12 48  1  0
 16 49  1  0
 16 50  1  0
 17 51  1  0
 17 52  1  0
 20 53  1  0
 20 54  1  0
 21 55  1  0
 21 56  1  0
 22 57  1  0
 22 58  1  0
 23 59  1  0
 24 60  1  0
 25 61  1  0
 25 62  1  0
 25 63  1  0
 26 64  1  0
 26 65  1  0
 26 66  1  0
 27 67  1  0
 27 68  1  0
 27 69  1  0
 28 70  1  0
 28 71  1  0
 28 72  1  0
 29 73  1  0
 29 74  1  0
 29 75  1  0
 30 76  1  0
 30 77  1  0
 30 78  1  0
 31 79  1  0
 31 80  1  0
 31 81  1  0
 32 82  1  0
 32 83  1  0
 32 84  1  0
M  END
> <Name>
MGA2019_MQ19

> <Clean Energy>
71.5203

$$$$
MGA2019_MQ20(R)
  SciTegic12132405553D

 84 88  0  0  0  0            999 V2000
   -5.0463   -1.9981   -4.7872 C   0  0
   -6.5593   -1.7145   -4.7963 C   0  0
   -6.9948   -0.8964   -6.0188 C   0  0  2  0  0  0
   -6.2437    0.4511   -6.0129 C   0  0  1  0  0  0
   -4.6558    0.2108   -6.1013 C   0  0  2  0  0  0
   -4.2471   -0.6474   -4.7817 C   0  0  2  0  0  0
   -2.6295   -0.8678   -4.5703 C   0  0  1  0  0  0
   -3.9153    1.5654   -5.9935 C   0  0
   -2.3530    1.4526   -5.8761 C   0  0
   -2.0085    0.6913   -4.5380 C   0  0  2  0  0  0
   -0.7294   -1.4673   -2.7708 C   0  0
   -2.3202   -1.5201   -3.1282 C   0  0  2  0  0  0
   -0.3755    0.7789   -4.1639 C   0  0  2  0  0  0
   -0.1784    0.0500   -2.7094 C   0  0  2  0  0  0
    1.5363    0.0616   -2.3768 C   0  0  1  0  0  0
    0.1436    2.3153   -4.0015 C   0  0
    1.6982    2.3306   -3.6866 C   0  0
    2.1709    1.5840   -2.3875 C   0  0  1  0  0  0
    2.0537    0.0982    0.4286 C   0  0
    2.1850   -0.6337   -1.0214 C   0  0
    1.8591    2.3452   -0.9730 C   0  0
    2.5953    1.5386    0.2479 C   0  0
   -8.3967   -0.6588   -5.9195 O   0  0
   -2.7886   -2.8852   -3.0140 O   0  0
    0.7041    0.1762    1.1081 C   0  0
    2.8951   -0.6877    1.4308 C   0  0
    3.7363    1.5941   -2.5721 C   0  0
   -1.1140    0.7866   -1.6475 C   0  0
   -6.8075    1.3204   -7.1810 C   0  0
   -4.3129   -0.4395   -7.5270 C   0  0
   -2.0245   -1.9033   -5.6468 C   0  0
    0.5164    0.1357   -5.3650 C   0  0
   -4.5716   -0.0466   -3.9213 H   0  0
   -2.5365    1.2207   -3.7523 H   0  0
    1.9244   -0.4897   -3.2306 H   0  0
   -4.8256   -2.5641   -3.8813 H   0  0
   -4.7708   -2.5955   -5.6648 H   0  0
   -7.1046   -2.6677   -4.7893 H   0  0
   -6.8087   -1.1450   -3.8906 H   0  0
   -6.7890   -1.4457   -6.9438 H   0  0
   -6.4647    0.9613   -5.0654 H   0  0
   -4.2512    2.0652   -5.0749 H   0  0
   -4.1787    2.1832   -6.8598 H   0  0
   -1.9086    0.9506   -6.7449 H   0  0
   -1.9657    2.4745   -5.8111 H   0  0
   -0.5831   -1.9121   -1.7776 H   0  0
   -0.1632   -2.0446   -3.5109 H   0  0
   -2.8509   -0.9354   -2.3856 H   0  0
   -0.4061    2.8311   -3.2109 H   0  0
   -0.0142    2.8471   -4.9475 H   0  0
    2.1763    1.8351   -4.5149 H   0  0
    2.0813    3.3586   -3.6510 H   0  0
    3.2619   -0.6359   -1.1975 H   0  0
    1.8412   -1.6737   -0.9483 H   0  0
    0.8028    2.4354   -0.7877 H   0  0
    2.2959    3.3506   -1.0276 H   0  0
    3.6483    1.4757   -0.0002 H   0  0
    2.4985    2.0705    1.2036 H   0  0
   -8.8749   -1.5236   -5.9081 H   0  0
   -2.2980   -3.4911   -3.6122 H   0  0
    0.8382    0.6552    2.0873 H   0  0
    0.2993   -0.8350    1.2484 H   0  0
    0.0462    0.7569    0.5652 H   0  0
    2.8751   -0.1766    2.4034 H   0  0
    3.9300   -0.7480    1.0671 H   0  0
    2.4818   -1.7001    1.5376 H   0  0
    4.2541    1.0692   -1.7716 H   0  0
    4.0841    2.6351   -2.6027 H   0  0
    3.9786    1.1016   -3.5235 H   0  0
   -1.0488    0.2733   -0.7358 H   0  0
   -2.1556    0.7841   -1.9258 H   0  0
   -0.8212    1.8186   -1.5157 H   0  0
   -6.3193    2.3029   -7.1903 H   0  0
   -7.8870    1.4583   -7.0330 H   0  0
   -6.6427    0.8218   -8.1428 H   0  0
   -3.2568   -0.5793   -7.6407 H   0  0
   -4.6407    0.2298   -8.3274 H   0  0
   -4.8154   -1.4064   -7.6400 H   0  0
   -2.5437   -2.8628   -5.5555 H   0  0
   -0.9896   -2.0854   -5.4631 H   0  0
   -2.1250   -1.5465   -6.6401 H   0  0
    0.3316    0.6927   -6.2912 H   0  0
    0.2928   -0.8702   -5.5201 H   0  0
    1.5770    0.1761   -5.1468 H   0  0
  1  2  1  0
  2  3  1  0
  3  4  1  0
  4  5  1  0
  5  6  1  0
  1  6  1  0
  8  9  1  0
  9 10  1  0
  7 10  1  0
  5  8  1  0
  7  6  1  0
 11 12  1  0
 13 14  1  0
 11 14  1  0
 12  7  1  0
 10 13  1  0
 16 17  1  0
 17 18  1  0
 15 18  1  0
 13 16  1  0
 15 14  1  0
 19 20  1  0
 21 22  1  0
 19 22  1  0
 20 15  1  0
 18 21  1  0
 19 25  1  0
 19 26  1  0
  6 33  1  0
 18 27  1  0
 15 35  1  0
 14 28  1  0
 13 32  1  0
 10 34  1  0
 12 24  1  0
  7 31  1  0
  5 30  1  0
  4 29  1  0
  3 23  1  0
  1 36  1  0
  1 37  1  0
  2 38  1  0
  2 39  1  0
  3 40  1  0
  4 41  1  0
  8 42  1  0
  8 43  1  0
  9 44  1  0
  9 45  1  0
 11 46  1  0
 11 47  1  0
 12 48  1  0
 16 49  1  0
 16 50  1  0
 17 51  1  0
 17 52  1  0
 20 53  1  0
 20 54  1  0
 21 55  1  0
 21 56  1  0
 22 57  1  0
 22 58  1  0
 23 59  1  0
 24 60  1  0
 25 61  1  0
 25 62  1  0
 25 63  1  0
 26 64  1  0
 26 65  1  0
 26 66  1  0
 27 67  1  0
 27 68  1  0
 27 69  1  0
 28 70  1  0
 28 71  1  0
 28 72  1  0
 29 73  1  0
 29 74  1  0
 29 75  1  0
 30 76  1  0
 30 77  1  0
 30 78  1  0
 31 79  1  0
 31 80  1  0
 31 81  1  0
 32 82  1  0
 32 83  1  0
 32 84  1  0
M  END
> <Name>
MGA2019_MQ20(R)

> <Clean Energy>
71.5235

$$$$
MGA2019_MQ20(S)
  SciTegic12132405553D

 84 88  0  0  0  0            999 V2000
   -5.0444   -2.0148   -4.7920 C   0  0
   -6.5713   -1.6944   -4.7696 C   0  0
   -7.0497   -0.9206   -6.0082 C   0  0  1  0  0  0
   -6.2213    0.4219   -6.0535 C   0  0  1  0  0  0
   -4.6187    0.2039   -6.1442 C   0  0  2  0  0  0
   -4.2286   -0.6580   -4.8136 C   0  0  2  0  0  0
   -2.6145   -0.8722   -4.5879 C   0  0  1  0  0  0
   -3.8970    1.5669   -6.0182 C   0  0
   -2.3324    1.4642   -5.8829 C   0  0
   -1.9974    0.6932   -4.5485 C   0  0  2  0  0  0
   -0.7235   -1.4655   -2.7759 C   0  0
   -2.3117   -1.5210   -3.1418 C   0  0  2  0  0  0
   -0.3672    0.7825   -4.1649 C   0  0  2  0  0  0
   -0.1751    0.0515   -2.7113 C   0  0  2  0  0  0
    1.5387    0.0638   -2.3720 C   0  0  1  0  0  0
    0.1502    2.3191   -3.9972 C   0  0
    1.7031    2.3348   -3.6766 C   0  0
    2.1716    1.5866   -2.3776 C   0  0  1  0  0  0
    2.0465    0.0947    0.4345 C   0  0
    2.1839   -0.6335   -1.0160 C   0  0
    1.8535    2.3446   -0.9628 C   0  0
    2.5863    1.5365    0.2590 C   0  0
   -6.9789   -1.7656   -7.1829 O   0  0
   -2.7771   -2.8873   -3.0271 O   0  0
    0.6942    0.1682    1.1084 C   0  0
    2.8859   -0.6916    1.4381 C   0  0
    3.7376    1.5991   -2.5565 C   0  0
   -1.1165    0.7860   -1.6524 C   0  0
   -6.7877    1.2822   -7.2198 C   0  0
   -4.2101   -0.3871   -7.5753 C   0  0
   -2.0044   -1.9136   -5.6571 C   0  0
    0.5284    0.1415   -5.3636 C   0  0
   -4.5622   -0.0542   -3.9588 H   0  0
   -2.5331    1.2177   -3.7643 H   0  0
    1.9305   -0.4856   -3.2254 H   0  0
   -4.8187   -2.5602   -3.8751 H   0  0
   -4.7870   -2.6361   -5.6597 H   0  0
   -7.1494   -2.6247   -4.6897 H   0  0
   -6.7547   -1.0746   -3.8810 H   0  0
   -8.1084   -0.6576   -5.8810 H   0  0
   -6.4164    0.9391   -5.1039 H   0  0
   -4.2491    2.0567   -5.1002 H   0  0
   -4.1568    2.1876   -6.8837 H   0  0
   -1.8745    0.9724   -6.7497 H   0  0
   -1.9517    2.4875   -5.8058 H   0  0
   -0.5814   -1.9097   -1.7818 H   0  0
   -0.1529   -2.0422   -3.5129 H   0  0
   -2.8480   -0.9362   -2.4033 H   0  0
   -0.4030    2.8332   -3.2080 H   0  0
   -0.0037    2.8528   -4.9427 H   0  0
    2.1845    1.8411   -4.5042 H   0  0
    2.0851    3.3631   -3.6378 H   0  0
    3.2614   -0.6338   -1.1885 H   0  0
    1.8415   -1.6742   -0.9463 H   0  0
    0.7963    2.4328   -0.7813 H   0  0
    2.2890    3.3507   -1.0136 H   0  0
    3.6403    1.4758    0.0147 H   0  0
    2.4851    2.0661    1.2155 H   0  0
   -6.1254   -2.1689   -7.2993 H   0  0
   -2.2812   -3.4938   -3.6201 H   0  0
    0.8230    0.6452    2.0892 H   0  0
    0.2911   -0.8443    1.2447 H   0  0
    0.0376    0.7484    0.5640 H   0  0
    2.8615   -0.1827    2.4117 H   0  0
    3.9223   -0.7489    1.0779 H   0  0
    2.4746   -1.7052    1.5413 H   0  0
    4.2534    1.0735   -1.7552 H   0  0
    4.0842    2.6408   -2.5840 H   0  0
    3.9840    1.1089   -3.5081 H   0  0
   -1.0549    0.2719   -0.7408 H   0  0
   -2.1569    0.7825   -1.9358 H   0  0
   -0.8255    1.8183   -1.5181 H   0  0
   -6.2883    2.2585   -7.2490 H   0  0
   -7.8638    1.4332   -7.0588 H   0  0
   -6.6389    0.7663   -8.1764 H   0  0
   -3.1435   -0.4850   -7.6580 H   0  0
   -4.5382    0.2991   -8.3624 H   0  0
   -4.6491   -1.3453   -7.7413 H   0  0
   -2.5252   -2.8720   -5.5621 H   0  0
   -0.9691   -2.0945   -5.4672 H   0  0
   -2.1003   -1.5649   -6.6529 H   0  0
    0.3472    0.6997   -6.2895 H   0  0
    0.3044   -0.8644   -5.5208 H   0  0
    1.5884    0.1813   -5.1414 H   0  0
  1  2  1  0
  3  2  1  0
  3  4  1  0
  4  5  1  0
  5  6  1  0
  6  1  1  0
  8  9  1  0
 10  9  1  0
  7 10  1  0
  5  8  1  0
  6  7  1  0
 12 11  1  0
 13 14  1  0
 14 11  1  0
  7 12  1  0
 10 13  1  0
 16 17  1  0
 18 17  1  0
 15 18  1  0
 13 16  1  0
 14 15  1  0
 19 20  1  0
 21 22  1  0
 19 22  1  0
 15 20  1  0
 18 21  1  0
 19 25  1  0
 19 26  1  0
  6 33  1  0
 18 27  1  0
 15 35  1  0
 14 28  1  0
 13 32  1  0
 10 34  1  0
 12 24  1  0
  7 31  1  0
  5 30  1  0
  4 29  1  0
  3 23  1  0
  1 36  1  0
  1 37  1  0
  2 38  1  0
  2 39  1  0
  3 40  1  0
  4 41  1  0
  8 42  1  0
  8 43  1  0
  9 44  1  0
  9 45  1  0
 11 46  1  0
 11 47  1  0
 12 48  1  0
 16 49  1  0
 16 50  1  0
 17 51  1  0
 17 52  1  0
 20 53  1  0
 20 54  1  0
 21 55  1  0
 21 56  1  0
 22 57  1  0
 22 58  1  0
 23 59  1  0
 24 60  1  0
 25 61  1  0
 25 62  1  0
 25 63  1  0
 26 64  1  0
 26 65  1  0
 26 66  1  0
 27 67  1  0
 27 68  1  0
 27 69  1  0
 28 70  1  0
 28 71  1  0
 28 72  1  0
 29 73  1  0
 29 74  1  0
 29 75  1  0
 30 76  1  0
 30 77  1  0
 30 78  1  0
 31 79  1  0
 31 80  1  0
 31 81  1  0
 32 82  1  0
 32 83  1  0
 32 84  1  0
M  END
> <Name>
MGA2019_MQ20(S)

> <Clean Energy>
79.2252

$$$$
MGA2019_MQ21
  SciTegic12132405553D

 84 89  0  0  0  0            999 V2000
   -4.1170   -2.3997   -5.9945 C   0  0
   -5.4756   -2.1127   -6.6632 C   0  0
   -5.3293   -1.6874   -8.1428 C   0  0  2  0  0  0
   -4.4788   -0.3992   -8.2191 C   0  0  1  0  0  0
   -3.0096   -0.6579   -7.6257 C   0  0  2  0  0  0
   -3.2279   -1.1188   -6.0447 C   0  0  2  0  0  0
   -1.8275   -1.2954   -5.2112 C   0  0  1  0  0  0
   -2.2316    0.6913   -7.5812 C   0  0
   -0.8787    0.7214   -6.7606 C   0  0  1  0  0  0
   -1.1632    0.2704   -5.3186 C   0  0  2  0  0  0
   -0.4874   -1.4733   -2.9619 C   0  0
   -1.9797   -1.5563   -3.6776 C   0  0
    0.2781    0.4806   -4.6298 C   0  0  2  0  0  0
    0.1815   -0.0065   -3.0764 C   0  0  2  0  0  0
    1.8029   -0.1023   -2.4864 C   0  0  1  0  0  0
    0.9389    1.9977   -4.5693 C   0  0
    2.3962    1.8945   -4.0206 C   0  0
    2.5802    1.3199   -2.5868 C   0  0  1  0  0  0
    1.8795    0.2325    0.3156 C   0  0
    2.1675   -0.6697   -0.9805 C   0  0
    2.1219    2.2891   -1.3502 C   0  0
    2.5715    1.5992    0.0665 C   0  0
   -6.6318   -1.4204   -8.6567 O   0  0
    0.4488    0.4656    0.7176 C   0  0
    2.4761   -0.4763    1.5296 C   0  0
    4.1482    1.1815   -2.5109 C   0  0
   -0.8861    0.9648   -2.3634 C   0  0
   -4.4720    0.0962   -9.7017 C   0  0
   -2.2452   -1.6744   -8.5893 C   0  0
   -1.0839   -2.7038   -5.6969 C   0  0
    1.1135   -0.3406   -5.6903 C   0  0
   -3.7706   -0.2974   -5.5578 H   0  0
   -1.9273    0.9088   -4.8657 H   0  0
    2.2456   -0.8027   -3.2010 H   0  0
    0.4505   -0.0286   -7.1278 N   0  0
   -0.5524    2.0882   -6.8279 O   0  0
   -4.2993   -2.6781   -4.9487 H   0  0
   -3.6242   -3.2294   -6.5122 H   0  0
   -6.0985   -3.0152   -6.6106 H   0  0
   -5.9672   -1.2976   -6.1138 H   0  0
   -4.8678   -2.4879   -8.7312 H   0  0
   -4.9718    0.3633   -7.6015 H   0  0
   -2.8845    1.3831   -7.0337 H   0  0
   -2.0737    1.0677   -8.5991 H   0  0
   -0.5776   -1.7171   -1.8948 H   0  0
    0.1754   -2.1968   -3.4285 H   0  0
   -2.4452   -2.5387   -3.5268 H   0  0
   -2.6217   -0.7936   -3.2396 H   0  0
    0.3482    2.6728   -3.9506 H   0  0
    1.0185    2.4176   -5.5604 H   0  0
    2.9209    1.2256   -4.6937 H   0  0
    2.8891    2.8748   -4.0583 H   0  0
    3.2527   -0.7800   -0.9761 H   0  0
    1.7167   -1.6614   -0.8474 H   0  0
    1.0597    2.4784   -1.3622 H   0  0
    2.6538    3.2438   -1.4486 H   0  0
    3.6412    1.4303    0.0113 H   0  0
    2.3699    2.2560    0.9228 H   0  0
   -7.1820   -2.2388   -8.5945 H   0  0
    0.4392    1.0538    1.6440 H   0  0
   -0.0489   -0.4992    0.8907 H   0  0
   -0.0466    1.0016    0.0010 H   0  0
    2.3407    0.1494    2.4217 H   0  0
    3.5485   -0.6473    1.3579 H   0  0
    1.9680   -1.4401    1.6739 H   0  0
    4.4831    0.7401   -1.5743 H   0  0
    4.5972    2.1786   -2.6180 H   0  0
    4.4834    0.5414   -3.3374 H   0  0
   -1.0520    0.6369   -1.3806 H   0  0
   -1.8476    0.9500   -2.8610 H   0  0
   -0.5409    1.9933   -2.3494 H   0  0
   -3.9026    1.0302   -9.7859 H   0  0
   -5.5067    0.2771  -10.0214 H   0  0
   -4.0275   -0.6621  -10.3571 H   0  0
   -1.2472   -1.8405   -8.2467 H   0  0
   -2.1772   -1.2565   -9.5966 H   0  0
   -2.7745   -2.6334   -8.6325 H   0  0
   -1.7374   -3.5563   -5.4858 H   0  0
   -0.1542   -2.8620   -5.1666 H   0  0
   -0.8514   -2.6968   -6.7205 H   0  0
    2.2045   -0.3391   -5.6119 H   0  0
    0.8513   -1.2952   -5.5426 H   0  0
    0.2702   -0.9651   -7.4727 H   0  0
   -0.3549    2.3303   -7.7651 H   0  0
  1  2  1  0
  3  2  1  0
  3  4  1  0
  4  5  1  0
  5  6  1  0
  6  1  1  0
  8  9  1  0
 10  9  1  0
  7 10  1  0
  5  8  1  0
  6  7  1  0
 12 11  1  0
 13 14  1  0
 14 11  1  0
  7 12  1  0
 10 13  1  0
 16 17  1  0
 18 17  1  0
 15 18  1  0
 13 16  1  0
 14 15  1  0
 19 20  1  0
 21 22  1  0
 19 22  1  0
 15 20  1  0
 18 21  1  0
 19 24  1  0
 19 25  1  0
  6 32  1  0
 18 26  1  0
 15 34  1  0
 14 27  1  0
 13 31  1  0
 10 33  1  0
  7 30  1  0
  5 29  1  0
  4 28  1  0
  3 23  1  0
 31 35  1  0
  9 35  1  0
  9 36  1  0
  1 37  1  0
  1 38  1  0
  2 39  1  0
  2 40  1  0
  3 41  1  0
  4 42  1  0
  8 43  1  0
  8 44  1  0
 11 45  1  0
 11 46  1  0
 12 47  1  0
 12 48  1  0
 16 49  1  0
 16 50  1  0
 17 51  1  0
 17 52  1  0
 20 53  1  0
 20 54  1  0
 21 55  1  0
 21 56  1  0
 22 57  1  0
 22 58  1  0
 23 59  1  0
 24 60  1  0
 24 61  1  0
 24 62  1  0
 25 63  1  0
 25 64  1  0
 25 65  1  0
 26 66  1  0
 26 67  1  0
 26 68  1  0
 27 69  1  0
 27 70  1  0
 27 71  1  0
 28 72  1  0
 28 73  1  0
 28 74  1  0
 29 75  1  0
 29 76  1  0
 29 77  1  0
 30 78  1  0
 30 79  1  0
 30 80  1  0
 31 81  1  0
 31 82  1  0
 35 83  1  0
 36 84  1  0
M  END
> <Name>
MGA2019_MQ21

> <Clean Energy>
149.236

$$$$
JPS2019_SC01
  SciTegic12132405553D

 79 84  0  0  0  0            999 V2000
   -5.2043   -2.5974    0.8472 C   0  0
   -4.8820   -3.7158   -0.2072 C   0  0  1  0  0  0
   -3.6371   -4.6015    0.1971 C   0  0
   -2.3957   -3.5560    0.3520 C   0  0  1  0  0  0
   -2.6696   -2.3481    1.4071 C   0  0  2  0  0  0
   -3.9598   -1.6240    0.9357 C   0  0
   -1.0132   -4.2818    0.6977 C   0  0
    0.1421   -3.2364    0.5174 C   0  0
    0.0513   -1.9978    1.4650 C   0  0  2  0  0  0
   -1.3830   -1.3401    1.2491 C   0  0  2  0  0  0
    1.1693   -0.8446    1.0351 C   0  0  1  0  0  0
    0.9169    0.5001    1.8027 C   0  0
   -0.2951    0.8361    2.2702 C   0  0
   -1.4962   -0.1067    2.2448 C   0  0
    2.6676   -1.3653    1.2367 C   0  0
    3.7377   -0.2346    1.0000 C   0  0
    3.4236    0.9380    2.0037 C   0  0  2  0  0  0
    2.0495    1.5504    1.8772 C   0  0  1  0  0  0
    4.5009    2.0679    1.8674 C   0  0  2  0  0  0
    3.9254    3.5604    2.2159 C   0  0
    2.9991    3.6773    0.8921 C   0  0  1  0  0  0
    1.7923    2.6599    0.8671 C   0  0
    2.4387    5.0310    0.4587 C   0  0
    3.9944    3.1748   -0.0291 C   0  0
    4.7840    2.2864    0.5109 O   0  0
    4.0555    3.5119   -1.2157 O   0  0
    3.4407    0.4675    3.5071 C   0  0
    1.0378   -0.4551   -0.5158 C   0  0
    0.3670   -2.4835    2.9589 C   0  0
   -2.9359   -2.7741    2.9417 C   0  0
   -6.0422   -4.5455   -0.4126 O   0  0
   -3.9288   -5.5394    1.4298 C   0  0
   -3.3488   -5.5878   -0.9484 C   0  0
   -6.0691   -2.0198    0.4953 H   0  0
   -5.4415   -3.0426    1.8202 H   0  0
   -4.6412   -3.2051   -1.1495 H   0  0
   -2.2902   -3.0888   -0.6364 H   0  0
   -4.1753   -0.7860    1.6099 H   0  0
   -3.7887   -1.2411   -0.0796 H   0  0
   -1.0358   -4.7130    1.7070 H   0  0
   -0.8274   -5.0766   -0.0307 H   0  0
    1.1206   -3.7148    0.6481 H   0  0
    0.0391   -2.9041   -0.5167 H   0  0
   -1.4030   -1.0158    0.2139 H   0  0
   -0.4109    1.7844    2.7284 H   0  0
   -1.5418   -0.4922    3.2656 H   0  0
   -2.4188    0.4630    2.0796 H   0  0
    2.7963   -1.6898    2.2590 H   0  0
    2.8507   -2.2240    0.5788 H   0  0
    4.7407   -0.6340    1.1964 H   0  0
    3.6915    0.1405   -0.0289 H   0  0
    1.9248    2.1458    2.7886 H   0  0
    5.4178    1.7329    2.3698 H   0  0
    3.4501    3.7158    3.1966 H   0  0
    4.7545    4.2692    2.0896 H   0  0
    0.8888    3.1010    1.3048 H   0  0
    1.6052    2.3921   -0.1789 H   0  0
    1.9421    4.9243   -0.5154 H   0  0
    3.2604    5.7559    0.3764 H   0  0
    1.7125    5.3798    1.2061 H   0  0
    3.2483    1.3323    4.1556 H   0  0
    4.4297    0.0518    3.7400 H   0  0
    2.6758   -0.2916    3.6999 H   0  0
    1.7674    0.3114   -0.7820 H   0  0
    0.0382   -0.0633   -0.7241 H   0  0
    1.2179   -1.3368   -1.1395 H   0  0
    0.3162   -1.6383    3.6546 H   0  0
    1.3699   -2.9149    3.0008 H   0  0
   -0.3191   -3.2414    3.2719 H   0  0
   -3.1059   -1.8767    3.5449 H   0  0
   -2.1130   -3.3181    3.3445 H   0  0
   -3.8065   -3.3862    3.0295 H   0  0
   -6.3214   -4.9774    0.4275 H   0  0
   -3.0403   -6.1474    1.6448 H   0  0
   -4.7648   -6.2026    1.1721 H   0  0
   -4.1990   -4.9878    2.3007 H   0  0
   -2.4731   -6.2024   -0.7059 H   0  0
   -3.1591   -5.0245   -1.8720 H   0  0
   -4.2208   -6.2413   -1.0885 H   0  0
  1  2  1  0
  2  3  1  0
  3  4  1  0
  4  5  1  0
  5  6  1  0
  6  1  1  0
  4  7  1  0
  7  8  1  0
  8  9  1  0
  9 10  1  0
 10  5  1  0
  9 11  1  0
 11 12  1  0
 12 13  2  0
 13 14  1  0
 14 10  1  0
 11 15  1  0
 15 16  1  0
 16 17  1  0
 17 18  1  0
 18 12  1  0
 17 19  1  0
 19 20  1  0
 20 21  1  0
 21 22  1  0
 22 18  1  0
 21 23  1  0
 21 24  1  0
 19 25  1  0
 25 24  1  0
 24 26  2  0
 17 27  1  0
 11 28  1  0
  9 29  1  0
  5 30  1  0
  2 31  1  0
  3 32  1  0
  3 33  1  0
  1 34  1  0
  1 35  1  0
  2 36  1  0
  4 37  1  0
  6 38  1  0
  6 39  1  0
  7 40  1  0
  7 41  1  0
  8 42  1  0
  8 43  1  0
 10 44  1  0
 13 45  1  0
 14 46  1  0
 14 47  1  0
 15 48  1  0
 15 49  1  0
 16 50  1  0
 16 51  1  0
 18 52  1  0
 19 53  1  0
 20 54  1  0
 20 55  1  0
 22 56  1  0
 22 57  1  0
 23 58  1  0
 23 59  1  0
 23 60  1  0
 27 61  1  0
 27 62  1  0
 27 63  1  0
 28 64  1  0
 28 65  1  0
 28 66  1  0
 29 67  1  0
 29 68  1  0
 29 69  1  0
 30 70  1  0
 30 71  1  0
 30 72  1  0
 31 73  1  0
 32 74  1  0
 32 75  1  0
 32 76  1  0
 33 77  1  0
 33 78  1  0
 33 79  1  0
M  END
> <Name>
JPS2019_SC01

> <Clean Energy>
169.788

$$$$
JPS2019_SC02
  SciTegic12132405553D

 83 87  0  0  0  0            999 V2000
   -4.2709   -2.3215   -1.1014 C   0  0
   -4.4002   -3.4804   -0.2076 C   0  0  1  0  0  0
   -2.8870   -4.2431   -0.3000 C   0  0
   -1.6183   -3.1288   -0.5379 C   0  0  1  0  0  0
   -1.8804   -1.8703    0.3528 C   0  0  2  0  0  0
   -3.1696   -1.2286   -0.4286 C   0  0
   -0.0668   -3.7079   -0.5993 C   0  0
    0.5918   -3.4500    0.6928 C   0  0
    0.7440   -1.7690    0.8583 C   0  0  2  0  0  0
   -0.5943   -1.0116    0.2144 C   0  0  2  0  0  0
    2.0158   -0.9613    0.0596 C   0  0  1  0  0  0
    1.9070    0.5755    0.2672 C   0  0
    0.7324    1.1775    0.5566 C   0  0
   -0.5946    0.4408    0.7642 C   0  0
    3.4129   -1.5237    0.5819 C   0  0
    4.6006   -0.7113    0.0416 C   0  0
    4.5044    0.7815    0.5373 C   0  0  2  0  0  0
    3.1624    1.5101    0.0575 C   0  0  1  0  0  0
    5.6740    1.3329   -0.2213 C   0  0
    5.8506    2.7888   -0.4205 C   0  0
    4.4817    3.4098   -0.8880 C   0  0  2  0  0  0
    3.3811    2.2767   -1.3822 C   0  0  2  0  0  0
    4.5501    0.9152    2.0856 C   0  0
    2.0257   -1.1190   -1.5332 C   0  0
    1.0227   -1.6198    2.4492 C   0  0
   -2.2229   -2.1059    1.9512 C   0  0
   -4.7895   -2.8936    1.0166 O   0  0
   -2.8027   -5.2378    0.9009 C   0  0
   -2.7894   -5.1172   -1.5785 C   0  0
   -2.4858   -0.8690    2.6058 O   0  0
    2.0843    2.9909   -1.8113 C   0  0
    4.8948    4.5773   -1.8282 C   0  0
    3.7727    5.3534   -2.2470 O   0  0
   -3.9082   -2.7101   -2.0578 H   0  0
   -5.2150   -1.7875   -1.2719 H   0  0
   -5.1681   -4.2230   -0.4618 H   0  0
   -1.7261   -2.7540   -1.5650 H   0  0
   -3.5974   -0.4492    0.2159 H   0  0
   -2.8195   -0.7608   -1.3583 H   0  0
   -0.0574   -4.7346   -0.9803 H   0  0
    0.5010   -3.1140   -1.2538 H   0  0
   -0.1235   -3.8545    1.4141 H   0  0
    1.5688   -3.9235    0.8532 H   0  0
   -0.5003   -0.9896   -0.8670 H   0  0
    0.7321    2.2307    0.6649 H   0  0
   -0.7629    0.4165    1.8439 H   0  0
   -1.4104    1.0282    0.3240 H   0  0
    3.4748   -1.4505    1.6574 H   0  0
    3.4967   -2.5803    0.2967 H   0  0
    5.5431   -1.1416    0.4035 H   0  0
    4.5971   -0.7393   -1.0492 H   0  0
    2.9930    2.4180    0.6411 H   0  0
    6.6053    0.8689    0.1286 H   0  0
    5.5151    0.9852   -1.2497 H   0  0
    6.2793    3.3894    0.3926 H   0  0
    6.5525    2.7636   -1.2647 H   0  0
    3.9800    3.8419   -0.0151 H   0  0
    3.6968    1.6243   -2.2111 H   0  0
    4.5553    1.9805    2.3535 H   0  0
    5.4636    0.4369    2.4631 H   0  0
    3.6716    0.4356    2.5372 H   0  0
    2.8544   -0.5663   -1.9772 H   0  0
    1.0947   -0.7316   -1.9557 H   0  0
    2.1300   -2.1769   -1.7918 H   0  0
    1.1269   -0.5634    2.7198 H   0  0
    1.9420   -2.1463    2.7177 H   0  0
    0.2224   -2.0488    3.0259 H   0  0
   -3.0758   -2.7117    2.0812 H   0  0
   -1.4222   -2.6029    2.4441 H   0  0
   -5.6690   -2.4554    0.9073 H   0  0
   -1.8596   -5.7980    0.8404 H   0  0
   -3.6476   -5.9370    0.8446 H   0  0
   -2.8450   -4.7068    1.8482 H   0  0
   -1.8228   -5.6315   -1.6072 H   0  0
   -2.8919   -4.4851   -2.4701 H   0  0
   -3.5947   -5.8638   -1.5642 H   0  0
   -2.6868   -1.0383    3.5573 H   0  0
    1.3096    2.2421   -2.0270 H   0  0
    2.2704    3.5878   -2.7125 H   0  0
    1.7459    3.6472   -0.9971 H   0  0
    5.5880    5.2350   -1.2860 H   0  0
    5.4026    4.1639   -2.7106 H   0  0
    3.3246    5.7369   -1.4520 H   0  0
  1  2  1  0
  2  3  1  0
  3  4  1  0
  4  5  1  0
  5  6  1  0
  6  1  1  0
  4  7  1  0
  7  8  1  0
  8  9  1  0
  9 10  1  0
 10  5  1  0
  9 11  1  0
 11 12  1  0
 12 13  2  0
 13 14  1  0
 14 10  1  0
 11 15  1  0
 15 16  1  0
 16 17  1  0
 17 18  1  0
 18 12  1  0
 17 19  1  0
 19 20  1  0
 20 21  1  0
 21 22  1  0
 22 18  1  0
 17 23  1  0
 11 24  1  0
  9 25  1  0
  5 26  1  0
  2 27  1  0
  3 28  1  0
  3 29  1  0
 26 30  1  0
 22 31  1  0
 21 32  1  0
 32 33  1  0
  1 34  1  0
  1 35  1  0
  2 36  1  0
  4 37  1  0
  6 38  1  0
  6 39  1  0
  7 40  1  0
  7 41  1  0
  8 42  1  0
  8 43  1  0
 10 44  1  0
 13 45  1  0
 14 46  1  0
 14 47  1  0
 15 48  1  0
 15 49  1  0
 16 50  1  0
 16 51  1  0
 18 52  1  0
 19 53  1  0
 19 54  1  0
 20 55  1  0
 20 56  1  0
 21 57  1  0
 22 58  1  0
 23 59  1  0
 23 60  1  0
 23 61  1  0
 24 62  1  0
 24 63  1  0
 24 64  1  0
 25 65  1  0
 25 66  1  0
 25 67  1  0
 26 68  1  0
 26 69  1  0
 27 70  1  0
 28 71  1  0
 28 72  1  0
 28 73  1  0
 29 74  1  0
 29 75  1  0
 29 76  1  0
 30 77  1  0
 31 78  1  0
 31 79  1  0
 31 80  1  0
 32 81  1  0
 32 82  1  0
 33 83  1  0
M  END
> <Name>
JPS2019_SC02

> <Clean Energy>
295.937

$$$$
JPS2019_SC03
  SciTegic12132405553D

115122  0  0  0  0            999 V2000
   -1.7200   -1.7931    1.1320 C   0  0  2  0  0  0
   -2.2657   -3.2741    0.6055 C   0  0  1  0  0  0
   -1.1251   -4.3923    0.8419 C   0  0  2  0  0  0
    0.2026   -3.7833    0.5084 C   0  0
    0.4863   -2.6822    1.2328 C   0  0
   -0.6364   -2.1037    2.2211 C   0  0  2  0  0  0
    1.1951   -4.4016   -0.4746 C   0  0
    2.6846   -4.0232   -0.2440 C   0  0
    2.7395   -2.5035   -0.1829 C   0  0  1  0  0  0
    1.8961   -2.0330    1.1829 C   0  0  1  0  0  0
    4.2974   -1.8891   -0.2639 C   0  0  2  0  0  0
    4.1620   -0.2777   -0.2150 C   0  0  1  0  0  0
    3.3801    0.1550    1.1336 C   0  0
    1.8857   -0.4673    1.1939 C   0  0
    5.0340   -2.2875   -1.6627 C   0  0
    6.5347   -1.7373   -1.7069 C   0  0
    6.7358   -0.1858   -1.5817 C   0  0  2  0  0  0
    5.7418    0.3681   -0.2579 C   0  0  1  0  0  0
    6.3598    0.7277   -2.6358 C   0  0
    6.8447    2.2735   -2.1737 C   0  0
    6.6854    2.7413   -0.5563 C   0  0  1  0  0  0
    5.4755    2.0526   -0.2493 C   0  0
    8.3390   -0.1304   -1.5177 C   0  0
    5.2411   -2.4961    0.9086 C   0  0
   -3.5815   -3.7886    1.4747 C   0  0
    7.7516    2.4052    0.5794 C   0  0
    3.2223    0.2542   -1.4484 C   0  0
    2.4399   -2.4753    2.6113 C   0  0
   -1.4252   -5.7936    0.2345 C   0  0
   -1.0634   -4.4691    2.3930 C   0  0
   -0.9664   -3.1891    3.1140 C   0  0
   -0.9392   -3.0964    4.3448 O   0  0
   -1.1980   -5.5414    2.9915 O   0  0
   -2.9815   -0.7182    1.5100 C   0  0
   -3.8677    0.1254    0.2801 C   0  0
   -2.8164   -2.9290   -0.7201 C   0  0
   -4.8498   -0.3476   -0.9969 C   0  0
   -5.4731   -1.7923   -1.4195 C   0  0  2  0  0  0
   -4.6122   -2.8230   -2.3203 C   0  0  1  0  0  0
   -3.7864   -3.8496   -1.4700 C   0  0
   -6.6696   -1.9408   -2.4322 C   0  0
   -5.9591   -3.2246   -2.9615 C   0  0
   -6.6001   -4.5340   -2.4412 C   0  0
   -5.8887   -3.2738   -4.4845 C   0  0
   -5.1181    0.6693   -1.8184 C   0  0
    6.5763    4.2329   -0.5636 C   0  0
    5.9696    4.7987   -1.4799 O   0  0
    7.1467    4.9807    0.4620 O   0  0
    6.9009    6.3703    0.2346 C   0  0
   -1.0659   -1.2720    0.4183 H   0  0
   -0.2702   -1.1985    2.7127 H   0  0
    1.0819   -5.4872   -0.5289 H   0  0
    0.9181   -3.9969   -1.4576 H   0  0
    3.0941   -4.4491    0.6794 H   0  0
    3.2459   -4.4062   -1.1044 H   0  0
    2.2081   -2.1326   -1.0583 H   0  0
    3.9515   -0.1771    2.0070 H   0  0
    3.2886    1.2449    1.1614 H   0  0
    1.3710   -0.1167    2.0951 H   0  0
    1.3321   -0.1212    0.3222 H   0  0
    5.0845   -3.3811   -1.7332 H   0  0
    4.4675   -1.9030   -2.5146 H   0  0
    7.0454   -2.1829   -0.8633 H   0  0
    7.0409   -2.0752   -2.6204 H   0  0
    6.2520   -0.0104    0.6321 H   0  0
    6.8079    0.4866   -3.6082 H   0  0
    5.3278    0.6906   -2.7346 H   0  0
    7.8665    2.5384   -2.4814 H   0  0
    6.1397    2.8610   -2.7748 H   0  0
    5.0456    2.3457    0.7147 H   0  0
    4.8003    2.3562   -1.0516 H   0  0
    8.7514    0.8532   -1.3640 H   0  0
    8.7383   -0.5285   -2.4595 H   0  0
    8.6711   -0.7694   -0.6878 H   0  0
    6.2493   -2.0985    0.8598 H   0  0
    5.2918   -3.5867    0.8040 H   0  0
    4.8815   -2.2582    1.8602 H   0  0
   -3.9418   -4.7453    1.0804 H   0  0
   -4.3847   -3.0490    1.3761 H   0  0
   -3.3847   -3.9142    2.5337 H   0  0
    7.9379    1.3453    0.6899 H   0  0
    7.3803    2.7957    1.5372 H   0  0
    8.6992    2.9010    0.3294 H   0  0
    3.1226    1.3408   -1.3978 H   0  0
    2.2259   -0.1741   -1.4162 H   0  0
    3.6586   -0.0149   -2.4033 H   0  0
    1.7752   -2.0931    3.3902 H   0  0
    3.4094   -2.0853    2.8077 H   0  0
    2.4670   -3.5715    2.6679 H   0  0
   -0.6285   -6.4931    0.5225 H   0  0
   -1.4672   -5.7180   -0.8615 H   0  0
   -2.3848   -6.1680    0.6095 H   0  0
   -3.6571   -1.1940    2.2278 H   0  0
   -2.4832    0.1197    2.0153 H   0  0
   -4.5081    0.8244    0.8347 H   0  0
   -3.1254    0.7702   -0.2100 H   0  0
   -2.0561   -2.5201   -1.3982 H   0  0
   -3.3635   -2.2429   -0.4352 H   0  0
   -5.6938   -2.3361   -0.4884 H   0  0
   -4.0122   -2.2876   -3.0672 H   0  0
   -4.5145   -4.2732   -0.7953 H   0  0
   -3.2893   -4.6551   -2.0264 H   0  0
   -7.6496   -2.0637   -1.9502 H   0  0
   -6.6523   -1.1934   -3.2347 H   0  0
   -5.9854   -5.3914   -2.7470 H   0  0
   -7.6082   -4.6366   -2.8662 H   0  0
   -6.6698   -4.5042   -1.3427 H   0  0
   -5.2614   -4.1204   -4.7928 H   0  0
   -5.4559   -2.3366   -4.8590 H   0  0
   -6.9034   -3.3996   -4.8897 H   0  0
   -4.7255    1.6296   -1.6006 H   0  0
   -5.7077    0.5344   -2.6819 H   0  0
    7.3463    6.6683   -0.7255 H   0  0
    7.3502    6.9599    1.0464 H   0  0
    5.8162    6.5502    0.2076 H   0  0
 48 49  1  0
 46 47  2  0
 46 48  1  0
 21 46  1  0
  1  2  1  0
  2  3  1  0
  3  4  1  0
  4  5  2  0
  5  6  1  0
  6  1  1  0
  4  7  1  0
  7  8  1  0
  8  9  1  0
  9 10  1  0
 10  5  1  0
  9 11  1  0
 11 12  1  0
 12 13  1  0
 13 14  1  0
 14 10  1  0
 11 15  1  0
 15 16  1  0
 16 17  1  0
 17 18  1  0
 18 12  1  0
 17 19  1  0
 19 20  1  0
 20 21  1  0
 21 22  1  0
 22 18  1  0
 17 23  1  0
 11 24  1  0
  2 25  1  0
 21 26  1  0
 12 27  1  0
 10 28  1  0
  3 29  1  0
  3 30  1  0
 30 31  1  0
 31  6  1  0
 31 32  2  0
 30 33  2  0
  1 34  1  0
 34 35  1  0
 35 37  1  0
 37 38  1  0
 38 39  1  0
 39 40  1  0
 40 36  1  0
 38 41  1  0
 41 42  1  0
 42 39  1  0
 42 43  1  0
 42 44  1  0
 37 45  2  0
 36  2  1  0
  1 50  1  0
  6 51  1  0
  7 52  1  0
  7 53  1  0
  8 54  1  0
  8 55  1  0
  9 56  1  0
 13 57  1  0
 13 58  1  0
 14 59  1  0
 14 60  1  0
 15 61  1  0
 15 62  1  0
 16 63  1  0
 16 64  1  0
 18 65  1  0
 19 66  1  0
 19 67  1  0
 20 68  1  0
 20 69  1  0
 22 70  1  0
 22 71  1  0
 23 72  1  0
 23 73  1  0
 23 74  1  0
 24 75  1  0
 24 76  1  0
 24 77  1  0
 25 78  1  0
 25 79  1  0
 25 80  1  0
 26 81  1  0
 26 82  1  0
 26 83  1  0
 27 84  1  0
 27 85  1  0
 27 86  1  0
 28 87  1  0
 28 88  1  0
 28 89  1  0
 29 90  1  0
 29 91  1  0
 29 92  1  0
 34 93  1  0
 34 94  1  0
 35 95  1  0
 35 96  1  0
 36 97  1  0
 36 98  1  0
 38 99  1  0
 39100  1  0
 40101  1  0
 40102  1  0
 41103  1  0
 41104  1  0
 43105  1  0
 43106  1  0
 43107  1  0
 44108  1  0
 44109  1  0
 44110  1  0
 45111  1  0
 45112  1  0
 49113  1  0
 49114  1  0
 49115  1  0
M  END
> <Name>
JPS2019_SC03

> <Clean Energy>
390.61

$$$$
JPS2019_SC05
  SciTegic12132405553D

 74 78  0  0  0  0            999 V2000
   -5.4909   -1.9297   -0.7575 C   0  0
   -5.4633   -3.3319   -1.1281 C   0  0
   -4.3210   -4.0377   -0.9807 C   0  0
   -3.0873   -3.3386   -0.4343 C   0  0
   -3.1792   -1.9271   -0.0294 C   0  0
   -4.3332   -1.2738   -0.1948 C   0  0
   -1.9189   -3.9904   -0.3348 C   0  0
   -0.6908   -3.3520    0.1261 C   0  0
   -0.6392   -2.0807    0.5444 C   0  0
   -1.9886   -1.2181    0.6179 C   0  0  1  0  0  0
    0.7863   -1.4274    0.9843 C   0  0  2  0  0  0
    0.9043   -0.0013    0.2641 C   0  0  1  0  0  0
   -0.4135    0.8982    0.5959 C   0  0
   -1.7355    0.1943    0.0156 C   0  0
    2.1033   -2.3121    0.5877 C   0  0
    3.4364   -1.6588    1.1538 C   0  0
    3.7817   -0.2116    0.6763 C   0  0  2  0  0  0
    2.3297    0.7474    0.8241 C   0  0  1  0  0  0
    4.1962    0.0782   -0.6806 C   0  0
    4.5942    1.7102   -0.7582 C   0  0
    3.6563    2.8284    0.0960 C   0  0  1  0  0  0
    2.3754    2.2101   -0.0547 C   0  0
    5.0758    0.0617    1.5837 C   0  0
    0.7899   -1.3354    2.5885 C   0  0
   -6.6892   -3.8628   -1.6347 O   0  0
   -6.5384   -1.2896   -0.8971 O   0  0
   -4.2379   -5.5193   -1.3610 C   0  0
   -2.4909   -0.9669    2.0910 C   0  0
    0.8975   -0.2316   -1.3573 C   0  0
    3.8524    3.1679    1.6409 C   0  0
    3.8220    4.1422   -0.5999 C   0  0
    3.7227    5.1948    0.0409 O   0  0
    4.1016    4.1785   -1.9614 O   0  0
    4.2299    5.5354   -2.3883 C   0  0
   -4.4211   -0.2604    0.1009 H   0  0
   -1.8468   -4.9966   -0.6294 H   0  0
    0.1822   -3.9313    0.0976 H   0  0
   -0.4984    1.0503    1.6782 H   0  0
   -0.3227    1.8711    0.1041 H   0  0
   -2.6217    0.8207    0.1769 H   0  0
   -1.5988    0.0810   -1.0508 H   0  0
    2.1740   -2.4325   -0.4965 H   0  0
    2.0055   -3.3035    1.0488 H   0  0
    3.3160   -1.6090    2.2295 H   0  0
    4.2980   -2.3045    0.9402 H   0  0
    2.2044    0.8748    1.9034 H   0  0
    5.0553   -0.5167   -1.0157 H   0  0
    3.3961   -0.1240   -1.3088 H   0  0
    5.6447    1.9310   -0.5221 H   0  0
    4.4393    1.8735   -1.8320 H   0  0
    1.5458    2.8496    0.2658 H   0  0
    2.3003    2.0347   -1.1309 H   0  0
    5.4912    1.0515    1.4922 H   0  0
    5.8516   -0.6650    1.3082 H   0  0
    4.7961   -0.0919    2.6345 H   0  0
    1.7037   -0.8851    2.9665 H   0  0
    0.6973   -2.3489    2.9999 H   0  0
   -0.0144   -0.7398    2.9410 H   0  0
   -6.6491   -4.7996   -1.8745 H   0  0
   -3.4118   -5.6564   -2.0733 H   0  0
   -5.1728   -5.8894   -1.7805 H   0  0
   -3.9672   -6.0940   -0.4636 H   0  0
   -3.4116   -0.3721    2.0688 H   0  0
   -1.7662   -0.4281    2.6692 H   0  0
   -2.6946   -1.9340    2.5700 H   0  0
    0.9546    0.7325   -1.8702 H   0  0
   -0.0020   -0.7443   -1.6877 H   0  0
    1.7377   -0.8402   -1.6631 H   0  0
    3.0883    3.8980    1.9406 H   0  0
    3.7706    2.3022    2.2840 H   0  0
    4.8484    3.6093    1.7782 H   0  0
    4.4575    5.5614   -3.4634 H   0  0
    5.0447    6.0189   -1.8292 H   0  0
    3.2878    6.0692   -2.1990 H   0  0
 33 34  1  0
 31 32  2  0
 31 33  1  0
 21 31  1  0
  1  2  1  0
  2  3  2  0
  3  4  1  0
  4  5  1  0
  5  6  2  0
  6  1  1  0
  4  7  2  0
  7  8  1  0
  8  9  2  0
  9 10  1  0
 10  5  1  0
  9 11  1  0
 11 12  1  0
 12 13  1  0
 13 14  1  0
 14 10  1  0
 11 15  1  0
 15 16  1  0
 16 17  1  0
 17 18  1  0
 18 12  1  0
 17 19  1  0
 19 20  1  0
 20 21  1  0
 21 22  1  0
 22 18  1  0
 17 23  1  0
 11 24  1  0
  1 26  2  0
  2 25  1  0
  3 27  1  0
 10 28  1  0
 12 29  1  0
 21 30  1  0
  6 35  1  0
  7 36  1  0
  8 37  1  0
 13 38  1  0
 13 39  1  0
 14 40  1  0
 14 41  1  0
 15 42  1  0
 15 43  1  0
 16 44  1  0
 16 45  1  0
 18 46  1  0
 19 47  1  0
 19 48  1  0
 20 49  1  0
 20 50  1  0
 22 51  1  0
 22 52  1  0
 23 53  1  0
 23 54  1  0
 23 55  1  0
 24 56  1  0
 24 57  1  0
 24 58  1  0
 25 59  1  0
 27 60  1  0
 27 61  1  0
 27 62  1  0
 28 63  1  0
 28 64  1  0
 28 65  1  0
 29 66  1  0
 29 67  1  0
 29 68  1  0
 30 69  1  0
 30 70  1  0
 30 71  1  0
 34 72  1  0
 34 73  1  0
 34 74  1  0
M  END
> <Name>
JPS2019_SC05

> <Clean Energy>
172.166

$$$$
JPS2019_SC06
  SciTegic12132405553D

 75 79  0  0  0  0            999 V2000
   -4.9545   -1.6699   -1.4112 C   0  0
   -4.9968   -3.1234   -1.4384 C   0  0
   -4.0101   -3.8402   -0.9069 C   0  0
   -2.8358   -3.1450   -0.2844 C   0  0
   -2.8357   -1.6461   -0.2202 C   0  0
   -3.8587   -0.9687   -0.7600 C   0  0
   -1.8146   -3.8513    0.2363 C   0  0
   -0.6292   -3.1922    0.7785 C   0  0
   -0.3476   -1.7656    0.3691 C   0  0  1  0  0  0
   -1.7150   -0.9233    0.5443 C   0  0  1  0  0  0
    1.0176   -1.1268    1.0657 C   0  0  2  0  0  0
    1.1925    0.3682    0.4776 C   0  0  1  0  0  0
   -0.1647    1.2153    0.7685 C   0  0
   -1.4394    0.5339    0.0351 C   0  0
    2.3616   -1.9693    0.6864 C   0  0
    3.6394   -1.3784    1.4242 C   0  0
    4.0200    0.1114    1.1293 C   0  0  2  0  0  0
    2.5546    1.0577    1.2390 C   0  0  1  0  0  0
    4.5563    0.5393   -0.1456 C   0  0
    4.9524    2.1691   -0.0127 C   0  0
    3.9328    3.1953    0.8634 C   0  0  1  0  0  0
    2.6716    2.6054    0.5285 C   0  0
    5.2251    0.2824    2.1750 C   0  0
    0.8883   -1.1665    2.6771 C   0  0
   -6.0825   -3.7693   -2.0244 O   0  0
   -5.8811   -1.0199   -1.9073 O   0  0
   -4.1110   -5.3510   -0.9672 C   0  0
   -2.3234   -0.7963    1.9896 C   0  0
    1.3388    0.3294   -1.1579 C   0  0
    3.9767    3.3661    2.4487 C   0  0
    0.2208   -3.8794    1.3524 O   0  0
    4.1634    4.5778    0.3390 C   0  0
    3.9292    5.5553    1.0587 O   0  0
    4.6658    4.7620   -0.9442 O   0  0
    4.8254    6.1582   -1.1999 C   0  0
   -3.9013    0.0835   -0.7045 H   0  0
   -1.8411   -4.9043    0.2467 H   0  0
   -0.1920   -1.7751   -0.7098 H   0  0
   -0.3426    1.2735    1.8486 H   0  0
   -0.0481    2.2283    0.3699 H   0  0
   -2.3429    1.1401    0.1800 H   0  0
   -1.2266    0.4892   -1.0271 H   0  0
    2.2382   -3.0000    1.0314 H   0  0
    2.5175   -1.9754   -0.3957 H   0  0
    3.4268   -1.4385    2.4844 H   0  0
    4.5199   -2.0017    1.2215 H   0  0
    2.3305    1.0746    2.3085 H   0  0
    5.4460   -0.0210   -0.4600 H   0  0
    3.8201    0.4081   -0.8624 H   0  0
    5.9745    2.3575    0.3447 H   0  0
    4.8997    2.4468   -1.0729 H   0  0
    2.6988    2.5474   -0.5621 H   0  0
    1.8112    3.2099    0.8373 H   0  0
    5.6434    1.2740    2.2258 H   0  0
    6.0257   -0.4161    1.8976 H   0  0
    4.8510    0.0220    3.1741 H   0  0
    0.7739   -2.2074    3.0025 H   0  0
    0.0598   -0.6033    3.0122 H   0  0
    1.7660   -0.7463    3.1606 H   0  0
   -6.7230   -3.1006   -2.3675 H   0  0
   -3.1228   -5.7891   -1.1636 H   0  0
   -4.8494   -5.6656   -1.7159 H   0  0
   -4.4313   -5.7080    0.0217 H   0  0
   -1.6634   -0.2788    2.6563 H   0  0
   -2.5358   -1.7971    2.3876 H   0  0
   -3.2594   -0.2262    1.9265 H   0  0
    1.4369    1.3465   -1.5458 H   0  0
    0.4802   -0.1300   -1.6347 H   0  0
    2.2091   -0.2434   -1.4500 H   0  0
    4.9533    3.7833    2.7280 H   0  0
    3.8364    2.4376    2.9855 H   0  0
    3.1849    4.0653    2.7497 H   0  0
    5.2298    6.3017   -2.2119 H   0  0
    5.5211    6.5871   -0.4631 H   0  0
    3.8507    6.6594   -1.1190 H   0  0
 34 35  1  0
 32 33  2  0
 32 34  1  0
 21 32  1  0
  1  2  1  0
  2  3  2  0
  3  4  1  0
  4  5  1  0
  5  6  2  0
  6  1  1  0
  4  7  2  0
  7  8  1  0
  8  9  1  0
  9 10  1  0
 10  5  1  0
  9 11  1  0
 11 12  1  0
 12 13  1  0
 13 14  1  0
 14 10  1  0
 11 15  1  0
 15 16  1  0
 16 17  1  0
 17 18  1  0
 18 12  1  0
 17 19  1  0
 19 20  1  0
 20 21  1  0
 21 22  1  0
 22 18  1  0
 17 23  1  0
 11 24  1  0
  1 26  2  0
  2 25  1  0
  3 27  1  0
 10 28  1  0
 12 29  1  0
 21 30  1  0
  8 31  2  0
  6 36  1  0
  7 37  1  0
  9 38  1  0
 13 39  1  0
 13 40  1  0
 14 41  1  0
 14 42  1  0
 15 43  1  0
 15 44  1  0
 16 45  1  0
 16 46  1  0
 18 47  1  0
 19 48  1  0
 19 49  1  0
 20 50  1  0
 20 51  1  0
 22 52  1  0
 22 53  1  0
 23 54  1  0
 23 55  1  0
 23 56  1  0
 24 57  1  0
 24 58  1  0
 24 59  1  0
 25 60  1  0
 27 61  1  0
 27 62  1  0
 27 63  1  0
 28 64  1  0
 28 65  1  0
 28 66  1  0
 29 67  1  0
 29 68  1  0
 29 69  1  0
 30 70  1  0
 30 71  1  0
 30 72  1  0
 35 73  1  0
 35 74  1  0
 35 75  1  0
M  END
> <Name>
JPS2019_SC06

> <Clean Energy>
160.795

$$$$
JPS2019_SC07
  SciTegic12132405553D

 73 77  0  0  0  0            999 V2000
   -5.8559   -1.6831   -1.0876 C   0  0
   -5.8187   -2.9150   -1.8535 C   0  0
   -4.6667   -3.5545   -2.0381 C   0  0
   -3.4028   -2.9937   -1.4560 C   0  0
   -3.4648   -1.7632   -0.6632 C   0  0
   -4.6423   -1.1490   -0.4941 C   0  0
   -2.2272   -3.5916   -1.6609 C   0  0
   -0.9832   -3.0429   -1.1412 C   0  0
   -0.9229   -1.9356   -0.3839 C   0  0
   -2.2134   -1.2033    0.0063 C   0  0  1  0  0  0
    0.4380   -1.3246    0.1296 C   0  0
    0.5337    0.2147    0.0177 C   0  0  1  0  0  0
   -0.8085    0.9190    0.4724 C   0  0
   -2.0661    0.3395   -0.2470 C   0  0
    1.5151   -2.0625    0.5613 C   0  0
    2.7716   -1.4569    1.1695 C   0  0
    3.2260   -0.0169    0.8969 C   0  0  2  0  0  0
    1.7876    0.8557    0.9585 C   0  0  1  0  0  0
    3.8172    0.4802   -0.3231 C   0  0
    4.1871    2.1298   -0.0790 C   0  0  1  0  0  0
    3.0899    3.0629    0.8376 C   0  0  1  0  0  0
    1.8800    2.4732    0.3959 C   0  0
    4.3695    0.0777    2.0179 C   0  0
   -6.9950   -3.4259   -2.3957 O   0  0
   -6.9287   -1.0937   -0.9183 O   0  0
   -4.6712   -4.8346   -2.8444 C   0  0
   -2.4233   -1.4436    1.5406 C   0  0
    0.6516    0.4113   -1.5871 C   0  0
    3.0583    3.1085    2.4311 C   0  0
    1.5033   -3.5696    0.6856 C   0  0
    5.4475    2.4039    0.5421 O   0  0
    3.3024    4.4834    0.4257 C   0  0
    3.1468    5.3937    1.2476 O   0  0
    3.6831    4.7773   -0.8785 O   0  0
    3.8334    6.1894   -1.0270 C   0  0
   -4.7062   -0.2670    0.0889 H   0  0
   -2.1706   -4.4724   -2.2365 H   0  0
   -0.0924   -3.5287   -1.4089 H   0  0
   -0.9218    0.7636    1.5484 H   0  0
   -0.7560    1.9927    0.2772 H   0  0
   -2.9600    0.8601    0.1167 H   0  0
   -1.9767    0.5065   -1.3227 H   0  0
    2.4884   -1.4351    2.2299 H   0  0
    3.6113   -2.1587    1.0807 H   0  0
    1.4950    0.7280    2.0096 H   0  0
    4.7089   -0.0475   -0.6845 H   0  0
    3.0799    0.3842   -1.0301 H   0  0
    4.2119    2.4805   -1.1184 H   0  0
    1.9773    2.5133   -0.6907 H   0  0
    0.9825    3.0229    0.6994 H   0  0
    4.7928    1.0555    2.1411 H   0  0
    5.1754   -0.6190    1.7521 H   0  0
    3.9365   -0.2241    2.9805 H   0  0
   -7.7521   -2.8343   -2.1668 H   0  0
   -4.2033   -5.6317   -2.2488 H   0  0
   -4.0325   -4.6937   -3.7279 H   0  0
   -5.6881   -5.1153   -3.1461 H   0  0
   -3.3298   -0.9225    1.8753 H   0  0
   -1.5660   -1.0792    2.1155 H   0  0
   -2.5353   -2.5218    1.7173 H   0  0
   -0.2020   -0.0323   -2.1019 H   0  0
    1.5503   -0.0813   -1.9536 H   0  0
    0.6921    1.4751   -1.8376 H   0  0
    2.9188    2.1391    2.8865 H   0  0
    4.0091    3.5265    2.7878 H   0  0
    2.2341    3.7621    2.7472 H   0  0
    0.5348   -3.9005    1.0860 H   0  0
    2.3387   -3.9105    1.3128 H   0  0
    1.6002   -4.0002   -0.3199 H   0  0
    6.1660    1.9534    0.0357 H   0  0
    4.1383    6.4190   -2.0578 H   0  0
    4.6020    6.5505   -0.3280 H   0  0
    2.8765    6.6843   -0.8081 H   0  0
 34 35  1  0
 32 33  2  0
 32 34  1  0
 21 32  1  0
  1  2  1  0
  2  3  2  0
  3  4  1  0
  4  5  1  0
  5  6  2  0
  6  1  1  0
  4  7  2  0
  7  8  1  0
  8  9  2  0
  9 10  1  0
 10  5  1  0
  9 11  1  0
 11 12  1  0
 12 13  1  0
 13 14  1  0
 14 10  1  0
 11 15  2  0
 15 16  1  0
 16 17  1  0
 17 18  1  0
 18 12  1  0
 17 19  1  0
 19 20  1  0
 20 21  1  0
 21 22  1  0
 22 18  1  0
 17 23  1  0
  1 25  2  0
  2 24  1  0
  3 26  1  0
 10 27  1  0
 12 28  1  0
 21 29  1  0
 15 30  1  0
 20 31  1  0
  6 36  1  0
  7 37  1  0
  8 38  1  0
 13 39  1  0
 13 40  1  0
 14 41  1  0
 14 42  1  0
 16 43  1  0
 16 44  1  0
 18 45  1  0
 19 46  1  0
 19 47  1  0
 20 48  1  0
 22 49  1  0
 22 50  1  0
 23 51  1  0
 23 52  1  0
 23 53  1  0
 24 54  1  0
 26 55  1  0
 26 56  1  0
 26 57  1  0
 27 58  1  0
 27 59  1  0
 27 60  1  0
 28 61  1  0
 28 62  1  0
 28 63  1  0
 29 64  1  0
 29 65  1  0
 29 66  1  0
 30 67  1  0
 30 68  1  0
 30 69  1  0
 31 70  1  0
 35 71  1  0
 35 72  1  0
 35 73  1  0
M  END
> <Name>
JPS2019_SC07

> <Clean Energy>
211.919

$$$$
JPS2019_SC08
  SciTegic12132405553D

 68 72  0  0  0  0            999 V2000
   -5.3958   -1.3726   -0.3333 C   0  0
   -5.1901   -2.7672   -0.6702 C   0  0
   -3.9845   -3.3167   -0.5484 C   0  0
   -2.8293   -2.4848   -0.0646 C   0  0
   -3.0688   -1.0808    0.3080 C   0  0
   -4.2989   -0.5667    0.1707 C   0  0
   -1.5986   -3.0063    0.0102 C   0  0
   -0.4338   -2.2258    0.4128 C   0  0
   -0.5096   -0.9428    0.7938 C   0  0
   -1.9430   -0.2258    0.8871 C   0  0  1  0  0  0
    0.8486   -0.1210    1.1541 C   0  0  2  0  0  0
    0.7872    1.2759    0.3787 C   0  0  1  0  0  0
   -0.6080    2.0430    0.7219 C   0  0
   -1.8620    1.1764    0.2194 C   0  0
    2.2392   -0.8723    0.7312 C   0  0
    3.4868   -0.0268    1.1955 C   0  0
    3.6138    1.4247    0.6181 C   0  0  2  0  0  0
    2.1482    2.1994    0.8397 C   0  0  1  0  0  0
    4.0634    1.6749   -0.8316 C   0  0
    4.2603    3.2957   -0.9185 C   0  0
    3.2386    4.3275   -0.2362 C   0  0  2  0  0  0
    2.0251    3.5414   -0.0778 C   0  0
    4.8525    1.9423    1.4782 C   0  0
    0.8953    0.0464    2.7531 C   0  0
   -6.2617   -3.5315   -1.1247 O   0  0
   -6.5186   -0.8694   -0.4496 O   0  0
   -3.8178   -4.7751   -0.9196 C   0  0
   -2.4217    0.0339    2.3669 C   0  0
    0.7623    0.9601   -1.2322 C   0  0
    3.0245    5.4934   -1.2025 C   0  0
    3.6931    4.9435    0.9948 O   0  0
    5.2586    3.7428   -1.4927 O   0  0
   -4.4921    0.4387    0.4438 H   0  0
   -1.4336   -4.0091   -0.2644 H   0  0
    0.4961   -2.7074    0.3683 H   0  0
   -0.6741    2.2352    1.7992 H   0  0
   -0.6387    2.9968    0.1856 H   0  0
   -2.8054    1.7111    0.3860 H   0  0
   -1.7456    1.0307   -0.8462 H   0  0
    2.2806   -1.8437    1.2410 H   0  0
    2.2817   -1.0388   -0.3473 H   0  0
    4.4213   -0.5635    0.9868 H   0  0
    3.3969    0.0739    2.2678 H   0  0
    2.0867    2.3735    1.9187 H   0  0
    5.0193    1.1788   -1.0439 H   0  0
    3.3302    1.3300   -1.5332 H   0  0
    1.1656    4.1371    0.2495 H   0  0
    1.8742    3.2488   -1.1054 H   0  0
    5.1084    2.9764    1.3091 H   0  0
    5.7268    1.3224    1.2390 H   0  0
    4.6062    1.8232    2.5418 H   0  0
    1.7655    0.6105    3.0769 H   0  0
    0.9284   -0.9506    3.2111 H   0  0
    0.0425    0.5670    3.1101 H   0  0
   -7.0776   -2.9759   -1.1567 H   0  0
   -2.9923   -4.8692   -1.6399 H   0  0
   -4.7462   -5.1941   -1.3274 H   0  0
   -3.5099   -5.3295   -0.0219 H   0  0
   -3.4009    0.5270    2.3553 H   0  0
   -1.7408    0.6705    2.8966 H   0  0
   -2.5054   -0.9276    2.8907 H   0  0
    0.6922    1.8927   -1.7965 H   0  0
   -0.0834    0.3331   -1.5046 H   0  0
    1.6592    0.4375   -1.5367 H   0  0
    2.2750    6.1800   -0.7853 H   0  0
    2.6706    5.1043   -2.1676 H   0  0
    3.9741    6.0274   -1.3468 H   0  0
    3.8120    4.3051    1.7053 H   0  0
  1  2  1  0
  2  3  2  0
  3  4  1  0
  4  5  1  0
  5  6  2  0
  6  1  1  0
  4  7  2  0
  7  8  1  0
  8  9  2  0
  9 10  1  0
 10  5  1  0
  9 11  1  0
 11 12  1  0
 12 13  1  0
 13 14  1  0
 14 10  1  0
 11 15  1  0
 15 16  1  0
 16 17  1  0
 17 18  1  0
 18 12  1  0
 17 19  1  0
 19 20  1  0
 20 21  1  0
 21 22  1  0
 22 18  1  0
 17 23  1  0
 11 24  1  0
  1 26  2  0
  2 25  1  0
  3 27  1  0
 10 28  1  0
 12 29  1  0
 21 30  1  0
 21 31  1  0
 20 32  2  0
  6 33  1  0
  7 34  1  0
  8 35  1  0
 13 36  1  0
 13 37  1  0
 14 38  1  0
 14 39  1  0
 15 40  1  0
 15 41  1  0
 16 42  1  0
 16 43  1  0
 18 44  1  0
 19 45  1  0
 19 46  1  0
 22 47  1  0
 22 48  1  0
 23 49  1  0
 23 50  1  0
 23 51  1  0
 24 52  1  0
 24 53  1  0
 24 54  1  0
 25 55  1  0
 27 56  1  0
 27 57  1  0
 27 58  1  0
 28 59  1  0
 28 60  1  0
 28 61  1  0
 29 62  1  0
 29 63  1  0
 29 64  1  0
 30 65  1  0
 30 66  1  0
 30 67  1  0
 31 68  1  0
M  END
> <Name>
JPS2019_SC08

> <Clean Energy>
143.446

$$$$
JPS2019_SC10
  SciTegic12132405553D

 41 44  0  0  0  0            999 V2000
   -1.8892    1.6182    0.6395 C   0  0  1  0  0  0
   -1.5325    0.1054    0.5710 C   0  0  2  0  0  0
   -0.2690   -0.4697   -0.3455 C   0  0
    0.9852    0.1985    0.3113 C   0  0  2  0  0  0
    0.8960    1.5888   -0.3320 C   0  0  1  0  0  0
    0.5604    2.8190    0.4569 C   0  0  1  0  0  0
   -0.7793    2.7175    1.1154 C   0  0  2  0  0  0
   -2.6405    1.9511   -0.7133 C   0  0
   -3.1355    0.5018   -1.1278 C   0  0  1  0  0  0
   -3.0573   -0.2920    0.1504 C   0  0  1  0  0  0
    2.3775   -0.2284   -0.1159 C   0  0  1  0  0  0
    2.4534    0.3490   -1.4612 C   0  0
    1.7420    1.5387   -1.4800 O   0  0
   -4.3135    0.5106   -1.9294 O   0  0
    0.1058    2.2499    1.9195 O   0  0
    3.3047    0.0359   -2.2975 O   0  0
    3.4790    0.4803    0.7254 C   0  0
   -3.3015   -1.7964   -0.0210 C   0  0
   -1.3312    4.0871    1.4304 C   0  0
   -2.6706    1.5633    1.4067 H   0  0
   -1.2865   -0.2615    1.5794 H   0  0
   -0.2557   -1.5544   -0.2015 H   0  0
   -0.3215   -0.2449   -1.4294 H   0  0
    0.7759    0.0549    1.3828 H   0  0
    0.0083    1.5480   -0.8325 H   0  0
    1.3803    3.4203    0.8568 H   0  0
   -3.3862    2.6909   -0.4016 H   0  0
   -2.0509    2.2950   -1.5724 H   0  0
   -2.3547    0.0467   -1.7201 H   0  0
   -3.7748    0.1060    0.8760 H   0  0
    2.5609   -1.3071   -0.0330 H   0  0
   -5.0564    0.9101   -1.4132 H   0  0
    4.4628    0.2004    0.3278 H   0  0
    3.4028    0.1511    1.7737 H   0  0
    3.3735    1.5701    0.6823 H   0  0
   -3.1571   -2.2988    0.9464 H   0  0
   -2.5972   -2.2061   -0.7563 H   0  0
   -4.3313   -1.9600   -0.3692 H   0  0
   -2.0972    4.0102    2.2077 H   0  0
   -1.7652    4.5066    0.5163 H   0  0
   -0.5086    4.7321    1.7774 H   0  0
  1  2  1  0
  2  3  1  0
  3  4  1  0
  4  5  1  0
  5  6  1  0
  6  7  1  0
  7  1  1  0
  1  8  1  0
  8  9  1  0
  9 10  1  0
 10  2  1  0
  4 11  1  0
 11 12  1  0
 12 13  1  0
 13  5  1  0
  9 14  1  0
  7 15  1  0
  6 15  1  0
 12 16  2  0
 11 17  1  0
 10 18  1  0
  7 19  1  0
  1 20  1  0
  2 21  1  0
  3 22  1  0
  3 23  1  0
  4 24  1  0
  5 25  1  0
  6 26  1  0
  8 27  1  0
  8 28  1  0
  9 29  1  0
 10 30  1  0
 11 31  1  0
 14 32  1  0
 17 33  1  0
 17 34  1  0
 17 35  1  0
 18 36  1  0
 18 37  1  0
 18 38  1  0
 19 39  1  0
 19 40  1  0
 19 41  1  0
M  END
> <Name>
JPS2019_SC10

> <Clean Energy>
285.634

$$$$
JPS2019_SC12
  SciTegic12132405553D

 39 41  0  0  0  0            999 V2000
   -3.7156    0.2045   -0.0142 C   0  0
   -4.0544   -1.0616    0.2079 C   0  0
   -3.0611   -2.1333    0.1108 C   0  0
   -1.7878   -1.8221   -0.2072 C   0  0
   -1.4192   -0.4013   -0.4528 C   0  0
   -2.3444    0.5489   -0.3577 C   0  0
   -0.7080   -2.8605   -0.3331 C   0  0
    0.6430   -2.2100   -0.0173 C   0  0  2  0  0  0
    0.9044   -0.9858   -0.9455 C   0  0  2  0  0  0
   -0.1234   -0.0373   -0.7855 O   0  0
    1.0579   -1.2280   -2.4654 C   0  0
    1.1227   -0.1498   -3.2386 C   0  0
    1.2809   -0.2604   -4.6855 C   0  0
    1.3614   -1.4540   -5.2808 C   0  0
    1.2932   -2.6952   -4.4071 C   0  0
    1.1585   -2.5647   -3.0891 C   0  0
    1.3672   -3.9943   -4.9115 O   0  0
    1.3470    0.9156   -5.4411 O   0  0
    1.6978   -3.1622   -0.1491 O   0  0
   -4.6772    1.2028    0.0812 O   0  0
   -3.5209   -3.4595    0.3622 O   0  0
    1.5097   -1.4510   -6.7179 O   0  0
    1.5864   -2.7144   -7.3824 C   0  0
   -5.0573   -1.2999    0.4571 H   0  0
   -2.0819    1.5602   -0.5347 H   0  0
   -0.9149   -3.7096    0.3290 H   0  0
   -0.7056   -3.2274   -1.3606 H   0  0
    0.6075   -1.8513    1.0214 H   0  0
    1.8372   -0.4944   -0.6385 H   0  0
    1.0607    0.8112   -2.7947 H   0  0
    1.1172   -3.4343   -2.4916 H   0  0
    1.2994   -4.6426   -4.1683 H   0  0
    1.4569    0.7083   -6.3973 H   0  0
    1.5305   -3.9220    0.4600 H   0  0
   -5.5485    0.7983    0.3198 H   0  0
   -2.8256   -4.1383    0.2830 H   0  0
    2.4523   -3.2776   -7.0059 H   0  0
    0.6648   -3.2844   -7.1935 H   0  0
    1.6990   -2.5512   -8.4637 H   0  0
 22 23  1  0
 14 22  1  0
  1  2  2  0
  2  3  1  0
  3  4  2  0
  4  5  1  0
  5  6  2  0
  6  1  1  0
  4  7  1  0
  7  8  1  0
  8  9  1  0
  9 10  1  0
 10  5  1  0
  9 11  1  0
 11 12  2  0
 12 13  1  0
 13 14  2  0
 14 15  1  0
 15 16  2  0
 16 11  1  0
 15 17  1  0
 13 18  1  0
  8 19  1  0
  1 20  1  0
  3 21  1  0
  2 24  1  0
  6 25  1  0
  7 26  1  0
  7 27  1  0
  8 28  1  0
  9 29  1  0
 12 30  1  0
 16 31  1  0
 17 32  1  0
 18 33  1  0
 19 34  1  0
 20 35  1  0
 21 36  1  0
 23 37  1  0
 23 38  1  0
 23 39  1  0
M  END
> <Name>
JPS2019_SC12

> <Clean Energy>
31.8669

$$$$
JPS2019_SC14
  SciTegic12132405553D

 81 85  0  0  0  0            999 V2000
   -4.9223   -2.3824    1.5286 C   0  0
   -4.9339   -3.5542    0.5005 C   0  0  1  0  0  0
   -3.5994   -4.3501    0.5155 C   0  0
   -2.4351   -3.3174    0.2637 C   0  0  1  0  0  0
   -2.4313   -2.0345    1.3210 C   0  0  2  0  0  0
   -3.8051   -1.3700    1.1139 C   0  0
   -1.0518   -4.0711    0.0502 C   0  0
    0.0683   -3.4778    0.8733 C   0  0
    0.2092   -1.9178    0.9272 C   0  0  2  0  0  0
   -1.2592   -1.2105    0.6784 C   0  0  2  0  0  0
    1.2379   -1.2344   -0.0737 C   0  0  1  0  0  0
    1.3130    0.3345    0.2711 C   0  0  2  0  0  0
   -0.1032    0.9673    0.1251 C   0  0
   -1.1453    0.2768    1.0787 C   0  0
    2.6641   -1.8613    0.1312 C   0  0
    3.7040   -1.1745   -0.8101 C   0  0
    3.7831    0.3242   -0.4563 C   0  0  2  0  0  0
    2.4078    1.0041   -0.6630 C   0  0  2  0  0  0
   -6.0661   -4.7157    0.7195 O   0  0
   -3.6278   -5.3825   -0.6265 C   0  0
   -3.4507   -5.1472    1.8414 C   0  0
    0.8101   -1.4659   -1.5648 C   0  0
    0.8082   -1.7254    2.3735 C   0  0
   -2.3128   -2.2517    2.8883 C   0  0
    4.6539    1.1514   -1.4228 C   0  0
    3.9662    2.5857   -1.4257 C   0  0
    2.8013    2.5086   -0.3891 C   0  0  1  0  0  0
    1.7663    3.5720   -0.6648 C   0  0
    1.2614    3.7160   -1.8894 C   0  0
    1.3736    4.5298    0.4244 C   0  0
    4.3396    0.4517    1.0059 C   0  0
   -5.8908   -1.8822    1.5268 H   0  0
   -4.7151   -2.7704    2.5259 H   0  0
   -4.9396   -3.8717   -0.7995 H   0  0
   -2.6343   -2.8493   -0.7106 H   0  0
   -3.8753   -0.4742    1.7309 H   0  0
   -3.9268   -1.0998    0.0650 H   0  0
   -1.1768   -5.1162    0.3335 H   0  0
   -0.7803   -4.0097   -1.0036 H   0  0
   -0.0665   -3.8245    1.8979 H   0  0
    1.0036   -3.8720    0.4759 H   0  0
   -1.5427   -1.2442   -0.3774 H   0  0
    1.6370    0.4679    1.3002 H   0  0
   -0.0445    2.0271    0.3732 H   0  0
   -0.4373    0.8530   -0.9061 H   0  0
   -0.8073    0.3552    2.1120 H   0  0
   -2.1163    0.7613    0.9757 H   0  0
    2.9716   -1.7218    1.1676 H   0  0
    2.6235   -2.9266   -0.0960 H   0  0
    4.6823   -1.6351   -0.6725 H   0  0
    3.3904   -1.2894   -1.8476 H   0  0
    2.1118    0.9008   -1.7125 H   0  0
   -5.7743   -4.2076    2.2784 H   0  0
   -2.5549   -6.3597    0.5521 H   0  0
   -3.4460   -5.8169   -0.8896 H   0  0
   -4.3242   -6.5371    0.4806 H   0  0
   -2.7472   -5.1526    2.7011 H   0  0
   -4.5087   -5.3925    2.6193 H   0  0
   -3.8431   -3.7590    2.8566 H   0  0
    1.5308   -0.9882   -2.2284 H   0  0
   -0.1773   -1.0352   -1.7311 H   0  0
    0.7791   -2.5355   -1.7725 H   0  0
    0.9661   -0.6639    2.5637 H   0  0
    1.7596   -2.2525    2.4463 H   0  0
    0.1136   -2.1268    3.1114 H   0  0
   -2.3300   -1.2852    3.3918 H   0  0
   -1.3769   -2.7624    3.1151 H   0  0
   -3.1500   -2.8569    3.2360 H   0  0
    5.6805    1.2145   -1.0620 H   0  0
    4.6454    0.7154   -2.4218 H   0  0
    4.6849    3.3504   -1.1309 H   0  0
    3.5759    2.8160   -2.4170 H   0  0
    3.1604    2.6199    0.6302 H   0  0
    1.5956    3.0645   -2.6968 H   0  0
    0.5141    4.4854   -2.0838 H   0  0
    0.6205    5.2213    0.0467 H   0  0
    2.2501    5.0902    0.7496 H   0  0
    0.9649    3.9737    1.2681 H   0  0
    4.4049    1.5047    1.2797 H   0  0
    5.3306    0.0010    1.0586 H   0  0
    3.6701   -0.0618    1.6960 H   0  0
  1  2  1  0
  2  3  1  0
  3  4  1  0
  4  5  1  0
  5  6  1  0
  6  1  1  0
  4  7  1  0
  7  8  1  0
  8  9  1  0
  9 10  1  0
 10  5  1  0
  9 11  1  0
 11 12  1  0
 12 13  1  0
 13 14  1  0
 14 10  1  0
 11 15  1  0
 15 16  1  0
 16 17  1  0
 17 18  1  0
 18 12  1  0
  2 19  1  0
  3 20  1  0
  3 21  1  0
 11 22  1  0
  9 23  1  0
  5 24  1  0
 17 25  1  0
 25 26  1  0
 26 27  1  0
 27 18  1  0
 27 28  1  0
 28 29  2  0
 28 30  1  0
 17 31  1  0
  1 32  1  0
  1 33  1  0
  2 34  1  0
  4 35  1  0
  6 36  1  0
  6 37  1  0
  7 38  1  0
  7 39  1  0
  8 40  1  0
  8 41  1  0
 10 42  1  0
 12 43  1  0
 13 44  1  0
 13 45  1  0
 14 46  1  0
 14 47  1  0
 15 48  1  0
 15 49  1  0
 16 50  1  0
 16 51  1  0
 18 52  1  0
 19 53  1  0
 20 54  1  0
 20 55  1  0
 20 56  1  0
 21 57  1  0
 21 58  1  0
 21 59  1  0
 22 60  1  0
 22 61  1  0
 22 62  1  0
 23 63  1  0
 23 64  1  0
 23 65  1  0
 24 66  1  0
 24 67  1  0
 24 68  1  0
 25 69  1  0
 25 70  1  0
 26 71  1  0
 26 72  1  0
 27 73  1  0
 29 74  1  0
 29 75  1  0
 30 76  1  0
 30 77  1  0
 30 78  1  0
 31 79  1  0
 31 80  1  0
 31 81  1  0
M  END
> <Name>
JPS2019_SC14

> <Clean Energy>
118.016

$$$$
JPS2019_SC15
  SciTegic12132405553D

 82 86  0  0  0  0            999 V2000
   -5.2560   -1.2854    0.0121 C   0  0
   -5.3548   -2.6488   -0.7524 C   0  0  1  0  0  0
   -4.2179   -3.6658   -0.3478 C   0  0
   -2.8139   -2.9038   -0.6735 C   0  0  1  0  0  0
   -2.6498   -1.4637    0.0689 C   0  0  2  0  0  0
   -3.8775   -0.6084   -0.3625 C   0  0
   -1.5462   -3.8197   -0.3966 C   0  0
   -0.2791   -3.1248   -1.0059 C   0  0
    0.0668   -1.7362   -0.3821 C   0  0  2  0  0  0
   -1.2758   -0.8160   -0.5579 C   0  0  2  0  0  0
    1.3205   -0.9811   -1.1821 C   0  0  1  0  0  0
    1.5279    0.4858   -0.5186 C   0  0  2  0  0  0
    0.2095    1.3125   -0.6795 C   0  0
   -0.9966    0.6281    0.0227 C   0  0
    2.7205   -1.8113   -1.0768 C   0  0  2  0  0  0
    3.8804   -1.0005   -1.7700 C   0  0
    4.0514    0.3802   -1.0832 C   0  0  2  0  0  0
    2.8037    1.1729   -1.2013 C   0  0  2  0  0  0
   -6.6530   -3.2373   -0.5402 O   0  0
   -4.3560   -4.9170   -1.2352 C   0  0
   -4.3852   -4.2213    1.1164 C   0  0
    0.9644   -0.8482   -2.7605 C   0  0
    0.5525   -1.9877    1.1255 C   0  0
   -2.6593   -1.4476    1.6823 C   0  0
    4.9489    1.3788   -1.9871 C   0  0
    4.7775    2.6503   -1.1539 C   0  0
    3.2353    2.6946   -0.7490 C   0  0  1  0  0  0
    2.3735    3.7271   -1.4998 C   0  0
    1.8999    4.7662   -0.8200 C   0  0
    2.0710    3.6383   -2.9825 C   0  0
    4.5582    0.1116    0.4351 C   0  0
    2.6025   -3.0757   -1.7191 O   0  0
   -6.0673   -0.6302   -0.3308 H   0  0
   -5.3522   -1.4406    1.0928 H   0  0
   -5.2395   -2.4229   -1.8212 H   0  0
   -2.8427   -2.6939   -1.7512 H   0  0
   -3.8057    0.3864    0.0932 H   0  0
   -3.8635   -0.5108   -1.4564 H   0  0
   -1.4340   -4.0175    0.6769 H   0  0
   -1.6622   -4.7688   -0.9274 H   0  0
    0.5882   -3.7835   -0.9055 H   0  0
   -0.5115   -2.9910   -2.0658 H   0  0
   -1.4656   -0.7436   -1.6300 H   0  0
    1.7451    0.3941    0.5474 H   0  0
    0.3501    2.2998   -0.2276 H   0  0
   -0.0203    1.4394   -1.7414 H   0  0
   -0.7909    0.5584    1.0970 H   0  0
   -1.8742    1.2634   -0.1350 H   0  0
    2.9838   -1.9675   -0.0352 H   0  0
    4.8311   -1.5471   -1.7270 H   0  0
    3.6115   -0.8436   -2.8148 H   0  0
    2.6780    1.2075   -2.2754 H   0  0
   -6.8134   -3.4037    0.4174 H   0  0
   -3.5658   -5.6392   -0.9970 H   0  0
   -4.2793   -4.6219   -2.2907 H   0  0
   -5.3352   -5.3808   -1.0535 H   0  0
   -3.5853   -4.9432    1.3272 H   0  0
   -5.3558   -4.7293    1.1871 H   0  0
   -4.3617   -3.4441    1.8462 H   0  0
    1.7586   -0.3315   -3.3010 H   0  0
    0.0381   -0.2894   -2.9072 H   0  0
    0.8444   -1.8475   -3.1926 H   0  0
    0.7831   -1.0409    1.6220 H   0  0
    1.4446   -2.6173    1.1259 H   0  0
   -0.1961   -2.5011    1.6889 H   0  0
   -2.5472   -0.4168    2.0347 H   0  0
   -1.8791   -2.0418    2.0866 H   0  0
   -3.5852   -1.8213    2.0684 H   0  0
    5.9953    1.0719   -2.1147 H   0  0
    4.4650    1.4895   -2.9671 H   0  0
    5.3037    2.3560   -0.2701 H   0  0
    5.2224    3.6074   -1.4573 H   0  0
    3.2715    2.8971    0.3299 H   0  0
    2.1092    4.8609    0.2151 H   0  0
    1.3161    5.5007   -1.3142 H   0  0
    1.8666    4.6372   -3.3907 H   0  0
    1.1657    3.0252   -3.1050 H   0  0
    2.8900    3.1320   -3.5124 H   0  0
    4.6886    1.0434    0.9904 H   0  0
    5.5195   -0.4168    0.3969 H   0  0
    3.8357   -0.5016    0.9811 H   0  0
    3.4599   -3.5597   -1.6465 H   0  0
  1  2  1  0
  2  3  1  0
  3  4  1  0
  4  5  1  0
  5  6  1  0
  6  1  1  0
  4  7  1  0
  7  8  1  0
  8  9  1  0
  9 10  1  0
 10  5  1  0
  9 11  1  0
 11 12  1  0
 12 13  1  0
 13 14  1  0
 14 10  1  0
 11 15  1  0
 15 16  1  0
 16 17  1  0
 17 18  1  0
 18 12  1  0
  2 19  1  0
  3 20  1  0
  3 21  1  0
 11 22  1  0
  9 23  1  0
  5 24  1  0
 17 25  1  0
 25 26  1  0
 26 27  1  0
 27 18  1  0
 27 28  1  0
 28 29  2  0
 28 30  1  0
 17 31  1  0
 15 32  1  0
  1 33  1  0
  1 34  1  0
  2 35  1  0
  4 36  1  0
  6 37  1  0
  6 38  1  0
  7 39  1  0
  7 40  1  0
  8 41  1  0
  8 42  1  0
 10 43  1  0
 12 44  1  0
 13 45  1  0
 13 46  1  0
 14 47  1  0
 14 48  1  0
 15 49  1  0
 16 50  1  0
 16 51  1  0
 18 52  1  0
 19 53  1  0
 20 54  1  0
 20 55  1  0
 20 56  1  0
 21 57  1  0
 21 58  1  0
 21 59  1  0
 22 60  1  0
 22 61  1  0
 22 62  1  0
 23 63  1  0
 23 64  1  0
 23 65  1  0
 24 66  1  0
 24 67  1  0
 24 68  1  0
 25 69  1  0
 25 70  1  0
 26 71  1  0
 26 72  1  0
 27 73  1  0
 29 74  1  0
 29 75  1  0
 30 76  1  0
 30 77  1  0
 30 78  1  0
 31 79  1  0
 31 80  1  0
 31 81  1  0
 32 82  1  0
M  END
> <Name>
JPS2019_SC15

> <Clean Energy>
123.668

$$$$
JPS2019_SC16
  SciTegic12132405553D

 82 86  0  0  0  0            999 V2000
   -5.3096   -1.2991   -0.5106 C   0  0
   -5.1838   -2.7543   -0.2586 C   0  0
   -3.8767   -3.3767   -0.5779 C   0  0  1  0  0  0
   -2.8085   -2.7357    0.3982 C   0  0  2  0  0  0
   -2.8347   -1.1253    0.1122 C   0  0  1  0  0  0
   -4.2887   -0.5648    0.3834 C   0  0
   -1.3903   -3.2279    0.0275 C   0  0
   -0.2284   -2.5133    0.8071 C   0  0
   -0.2473   -0.9779    0.4349 C   0  0  1  0  0  0
   -1.6909   -0.2751    0.9105 C   0  0  1  0  0  0
    1.1167   -0.1754    0.9820 C   0  0  2  0  0  0
    1.0075    1.3743    0.4525 C   0  0  1  0  0  0
   -0.3707    2.0323    0.9799 C   0  0
   -1.6735    1.2152    0.4219 C   0  0
    2.4909   -0.7933    0.3666 C   0  0
    3.7413   -0.0161    0.9546 C   0  0
    3.8143    1.5322    0.6888 C   0  0  2  0  0  0
    2.3827    2.2220    1.1200 C   0  0  1  0  0  0
   -6.1435   -3.4290    0.1292 O   0  0
   -3.9902   -4.9300   -0.5375 C   0  0
    4.2329    1.9789   -0.8280 C   0  0
    4.4744    3.5992   -0.8729 C   0  0  2  0  0  0
    3.1663    4.4059   -0.5358 C   0  0
    2.6294    3.8409    0.8913 C   0  0
    4.9846    3.9959   -2.1606 O   0  0
    2.2517    4.3637   -1.7410 C   0  0
    3.4366    5.9045   -0.3593 C   0  0
    5.0062    1.9534    1.6299 C   0  0
    0.8811    1.3546   -1.1399 C   0  0
    1.2450   -0.3277    2.5997 C   0  0
   -2.0241   -0.1603    2.4832 C   0  0
   -3.1513   -3.2126    1.8826 C   0  0
   -5.0073   -1.0959   -1.5474 H   0  0
   -6.3302   -0.9423   -0.3174 H   0  0
   -3.5763   -3.0497   -1.5830 H   0  0
   -2.6004   -1.0066   -0.9543 H   0  0
   -4.5487   -0.7191    1.4373 H   0  0
   -4.3379    0.5050    0.1508 H   0  0
   -1.3383   -4.3116    0.1873 H   0  0
   -1.2204   -3.0083   -1.0352 H   0  0
   -0.3122   -2.6590    1.8916 H   0  0
    0.7108   -2.9517    0.4537 H   0  0
   -0.2229   -0.9319   -0.6495 H   0  0
   -0.3763    2.0420    2.0748 H   0  0
   -0.4210    3.0659    0.6121 H   0  0
   -2.6063    1.7048    0.7271 H   0  0
   -1.6292    1.2176   -0.6617 H   0  0
    2.5751   -1.8451    0.6655 H   0  0
    2.4898   -0.7355   -0.7243 H   0  0
    4.6806   -0.4684    0.6111 H   0  0
    3.6941   -0.1398    2.0236 H   0  0
    2.2278    2.0771    2.1867 H   0  0
   -3.0236   -5.3834   -0.7931 H   0  0
   -4.7444   -5.2510   -1.2687 H   0  0
   -4.2971   -5.2636    0.4613 H   0  0
    5.1868    1.4906   -1.0647 H   0  0
    3.4991    1.6812   -1.5572 H   0  0
    5.2219    3.8298   -0.1228 H   0  0
    3.4369    4.1009    1.5778 H   0  0
    1.7262    4.3877    1.1919 H   0  0
    5.2004    4.9575   -2.1742 H   0  0
    1.3260    4.9132   -1.5240 H   0  0
    2.0404    3.3914   -2.0122 H   0  0
    2.7679    4.8392   -2.5856 H   0  0
    2.4941    6.4186   -0.1260 H   0  0
    3.8581    6.3122   -1.2880 H   0  0
    4.1495    6.0497    0.4640 H   0  0
    4.7622    1.6527    2.6578 H   0  0
    5.1870    3.0265    1.6191 H   0  0
    5.9168    1.4325    1.3052 H   0  0
    0.7306    2.3363   -1.4749 H   0  0
    1.7669    0.9367   -1.5981 H   0  0
    0.0390    0.7791   -1.4907 H   0  0
    2.1175    0.1867    2.9855 H   0  0
    1.3272   -1.3899    2.8578 H   0  0
    0.4250    0.0819    3.0966 H   0  0
   -3.0023    0.3137    2.6126 H   0  0
   -1.3083    0.4512    2.9873 H   0  0
   -2.0316   -1.1118    2.9550 H   0  0
   -3.1121   -4.3047    1.9369 H   0  0
   -2.4345   -2.8288    2.5836 H   0  0
   -4.1536   -2.8746    2.1715 H   0  0
  1  2  1  0
  2  3  1  0
  3  4  1  0
  4  5  1  0
  5  6  1  0
  6  1  1  0
  4  7  1  0
  7  8  1  0
  8  9  1  0
  9 10  1  0
 10  5  1  0
  9 11  1  0
 11 12  1  0
 12 13  1  0
 13 14  1  0
 14 10  1  0
 11 15  1  0
 15 16  1  0
 16 17  1  0
 17 18  1  0
 18 12  1  0
  2 19  2  0
  3 20  1  0
 17 21  1  0
 21 22  1  0
 22 23  1  0
 23 24  1  0
 24 18  1  0
 22 25  1  0
 23 26  1  0
 23 27  1  0
 17 28  1  0
 12 29  1  0
 11 30  1  0
 10 31  1  0
  4 32  1  0
  1 33  1  0
  1 34  1  0
  3 35  1  0
  5 36  1  0
  6 37  1  0
  6 38  1  0
  7 39  1  0
  7 40  1  0
  8 41  1  0
  8 42  1  0
  9 43  1  0
 13 44  1  0
 13 45  1  0
 14 46  1  0
 14 47  1  0
 15 48  1  0
 15 49  1  0
 16 50  1  0
 16 51  1  0
 18 52  1  0
 20 53  1  0
 20 54  1  0
 20 55  1  0
 21 56  1  0
 21 57  1  0
 22 58  1  0
 24 59  1  0
 24 60  1  0
 25 61  1  0
 26 62  1  0
 26 63  1  0
 26 64  1  0
 27 65  1  0
 27 66  1  0
 27 67  1  0
 28 68  1  0
 28 69  1  0
 28 70  1  0
 29 71  1  0
 29 72  1  0
 29 73  1  0
 30 74  1  0
 30 75  1  0
 30 76  1  0
 31 77  1  0
 31 78  1  0
 31 79  1  0
 32 80  1  0
 32 81  1  0
 32 82  1  0
M  END
> <Name>
JPS2019_SC16

> <Clean Energy>
95.1798

$$$$
JPS2019_SC17
  SciTegic12132405553D

 82 86  0  0  0  0            999 V2000
   -5.1241   -1.4809   -0.2809 C   0  0
   -4.9485   -2.9395   -0.8278 C   0  0  1  0  0  0
   -3.7514   -3.6982   -0.1800 C   0  0
   -2.4305   -2.7967   -0.4920 C   0  0  1  0  0  0
   -2.5436   -1.2566    0.0254 C   0  0  2  0  0  0
   -3.8217   -0.6631   -0.6411 C   0  0
   -1.0866   -3.4656    0.0389 C   0  0
    0.1364   -2.6836   -0.5668 C   0  0
    0.2129   -1.1845   -0.1471 C   0  0  2  0  0  0
   -1.2142   -0.5101   -0.5744 C   0  0  2  0  0  0
    1.4217   -0.3847   -0.9599 C   0  0  1  0  0  0
    1.3730    1.1666   -0.5313 C   0  0  2  0  0  0
   -0.0239    1.7698   -0.9044 C   0  0
   -1.1904    1.0270   -0.2013 C   0  0
    2.8824   -0.9952   -0.5935 C   0  0
    4.0274   -0.1761   -1.2910 C   0  0
    3.9713    1.3065   -0.8154 C   0  0  2  0  0  0
    2.5701    1.9340   -1.2423 C   0  0  2  0  0  0
   -6.1358   -3.6958   -0.6064 O   0  0
   -3.6185   -5.0718   -0.8632 C   0  0
   -4.0396   -4.0484    1.3215 C   0  0
    1.2187   -0.5413   -2.5601 C   0  0
    0.5642   -1.1371    1.4212 C   0  0
   -2.7290   -1.0130    1.6115 C   0  0
    4.8246    2.1849   -1.6605 C   0  0
    4.2788    3.6541   -1.4724 C   0  0
    2.8470    3.4127   -0.8187 C   0  0  1  0  0  0
    1.9023    4.5451   -1.0992 C   0  0
    1.4727    4.7790   -2.3378 C   0  0
    1.4471    5.4160    0.0248 C   0  0
    4.3559    1.3784    0.7686 C   0  0
    5.6870    0.8768    0.9981 O   0  0
   -5.9805   -1.0158   -0.7866 H   0  0
   -5.3081   -1.4911    0.7988 H   0  0
   -4.7629   -2.8532   -1.9071 H   0  0
   -2.3669   -2.7526   -1.5877 H   0  0
   -3.9345    0.3862   -0.3432 H   0  0
   -3.7039   -0.7227   -1.7316 H   0  0
   -1.0671   -3.4850    1.1361 H   0  0
   -1.0160   -4.4888   -0.3406 H   0  0
    1.0754   -3.1783   -0.2907 H   0  0
    0.0005   -2.7456   -1.6491 H   0  0
   -1.3004   -0.6208   -1.6564 H   0  0
    1.5200    1.2442    0.5473 H   0  0
   -0.0597    2.8166   -0.6019 H   0  0
   -0.1693    1.7089   -1.9869 H   0  0
   -1.0851    1.1397    0.8837 H   0  0
   -2.1237    1.5001   -0.5230 H   0  0
    3.0494   -0.9468    0.4787 H   0  0
    2.9267   -2.0436   -0.9127 H   0  0
    5.0152   -0.5983   -1.0711 H   0  0
    3.8625   -0.2064   -2.3697 H   0  0
    2.4639    1.8733   -2.3299 H   0  0
   -6.8983   -3.2410   -1.0397 H   0  0
   -2.7752   -5.6270   -0.4351 H   0  0
   -3.4550   -4.9258   -1.9397 H   0  0
   -4.5432   -5.6436   -0.7062 H   0  0
   -3.1903   -4.6081    1.7347 H   0  0
   -4.9405   -4.6746    1.3666 H   0  0
   -4.2096   -3.1762    1.9127 H   0  0
    1.9980   -0.0075   -3.1074 H   0  0
    0.2506   -0.1438   -2.8724 H   0  0
    1.2695   -1.6006   -2.8331 H   0  0
    0.6098   -0.1033    1.7769 H   0  0
    1.5266   -1.6184    1.6021 H   0  0
   -0.1639   -1.6684    1.9933 H   0  0
   -2.7951    0.0626    1.8070 H   0  0
   -1.9246   -1.4203    2.1692 H   0  0
   -3.6309   -1.4612    1.9709 H   0  0
    5.9142    2.0502   -1.6559 H   0  0
    4.4488    1.9143   -2.6570 H   0  0
    4.8419    4.3686   -0.8572 H   0  0
    4.2144    3.9992   -2.5129 H   0  0
    2.9721    3.3689    0.2446 H   0  0
    1.7950    4.1618   -3.1389 H   0  0
    0.8066    5.5826   -2.5228 H   0  0
    0.7704    6.2025   -0.3375 H   0  0
    2.3295    5.8485    0.5167 H   0  0
    0.9501    4.7850    0.7761 H   0  0
    4.3320    2.4065    1.1328 H   0  0
    3.6464    0.7869    1.3584 H   0  0
    5.7518   -0.0763    0.7609 H   0  0
  1  2  1  0
  2  3  1  0
  3  4  1  0
  4  5  1  0
  5  6  1  0
  6  1  1  0
  4  7  1  0
  7  8  1  0
  8  9  1  0
  9 10  1  0
 10  5  1  0
  9 11  1  0
 11 12  1  0
 12 13  1  0
 13 14  1  0
 14 10  1  0
 11 15  1  0
 15 16  1  0
 16 17  1  0
 17 18  1  0
 18 12  1  0
  2 19  1  0
  3 20  1  0
  3 21  1  0
 11 22  1  0
  9 23  1  0
  5 24  1  0
 17 25  1  0
 25 26  1  0
 26 27  1  0
 27 18  1  0
 27 28  1  0
 28 29  2  0
 28 30  1  0
 17 31  1  0
 31 32  1  0
  1 33  1  0
  1 34  1  0
  2 35  1  0
  4 36  1  0
  6 37  1  0
  6 38  1  0
  7 39  1  0
  7 40  1  0
  8 41  1  0
  8 42  1  0
 10 43  1  0
 12 44  1  0
 13 45  1  0
 13 46  1  0
 14 47  1  0
 14 48  1  0
 15 49  1  0
 15 50  1  0
 16 51  1  0
 16 52  1  0
 18 53  1  0
 19 54  1  0
 20 55  1  0
 20 56  1  0
 20 57  1  0
 21 58  1  0
 21 59  1  0
 21 60  1  0
 22 61  1  0
 22 62  1  0
 22 63  1  0
 23 64  1  0
 23 65  1  0
 23 66  1  0
 24 67  1  0
 24 68  1  0
 24 69  1  0
 25 70  1  0
 25 71  1  0
 26 72  1  0
 26 73  1  0
 27 74  1  0
 29 75  1  0
 29 76  1  0
 30 77  1  0
 30 78  1  0
 30 79  1  0
 31 80  1  0
 31 81  1  0
 32 82  1  0
M  END
> <Name>
JPS2019_SC17

> <Clean Energy>
115.805

$$$$
JPS2019_SC18
  SciTegic12132405553D

 82 86  0  0  0  0            999 V2000
   -4.3252   -1.5408    0.3868 C   0  0  1  0  0  0
   -4.2605   -2.9532   -0.2874 C   0  0  1  0  0  0
   -3.2544   -3.9332    0.4447 C   0  0
   -1.8069   -3.1881    0.4177 C   0  0  1  0  0  0
   -1.8131   -1.6934    1.0555 C   0  0  2  0  0  0
   -2.8977   -0.8841    0.2901 C   0  0
   -0.6439   -4.0629    1.0791 C   0  0
    0.7342   -3.4103    0.7221 C   0  0
    0.9297   -1.9578    1.2565 C   0  0  2  0  0  0
   -0.3338   -1.0856    0.6969 C   0  0  2  0  0  0
    2.3256   -1.2854    0.6610 C   0  0  1  0  0  0
    2.4088    0.2448    1.1512 C   0  0  2  0  0  0
    1.1548    1.0292    0.6520 C   0  0
   -0.1757    0.4137    1.1732 C   0  0
    3.6386   -2.0817    1.1970 C   0  0
    4.9573   -1.4005    0.6942 C   0  0
    5.0142    0.0739    1.1760 C   0  0  2  0  0  0
    3.7781    0.8730    0.6049 C   0  0  2  0  0  0
   -5.5898   -3.5143   -0.3153 O   0  0
   -3.1483   -5.2586   -0.3492 C   0  0
   -3.8078   -4.3634    1.8439 C   0  0
    2.3225   -1.3576   -0.9613 C   0  0
    1.0611   -2.0283    2.8572 C   0  0
   -2.1974   -1.5572    2.6170 C   0  0
    6.1065    0.8315    0.4817 C   0  0
    5.6796    2.3421    0.5144 C   0  0
    4.1931    2.3142    1.0669 C   0  0  1  0  0  0
    3.4251    3.5331    0.6189 C   0  0
    3.1376    3.7138   -0.6709 C   0  0
    2.9883    4.5475    1.6192 C   0  0
    5.1769    0.0891    2.7778 C   0  0
   -5.2377   -0.7329   -0.3489 O   0  0
   -4.6688   -1.6170    1.4248 H   0  0
   -3.9086   -2.7914   -1.3156 H   0  0
   -1.5736   -3.0692   -0.6494 H   0  0
   -2.9226    0.1404    0.6806 H   0  0
   -2.6339   -0.8642   -0.7753 H   0  0
   -0.7946   -4.1581    2.1622 H   0  0
   -0.6335   -5.0585    0.6280 H   0  0
    1.5578   -4.0374    1.0839 H   0  0
    0.7472   -3.3933   -0.3686 H   0  0
   -0.2863   -1.1199   -0.3924 H   0  0
    2.4237    0.2737    2.2437 H   0  0
    1.2137    2.0616    1.0031 H   0  0
    1.1347    1.0267   -0.4415 H   0  0
   -0.2004    0.4597    2.2693 H   0  0
   -0.9936    1.0184    0.7704 H   0  0
    3.6561   -2.0751    2.2842 H   0  0
    3.6038   -3.1210    0.8487 H   0  0
    5.8469   -1.9406    1.0429 H   0  0
    4.9438   -1.4067   -0.3979 H   0  0
    3.7963    0.8374   -0.4872 H   0  0
   -5.6091   -4.3658   -0.8068 H   0  0
   -2.4448   -5.9406    0.1408 H   0  0
   -2.7990   -5.0397   -1.3689 H   0  0
   -4.1362   -5.7336   -0.3946 H   0  0
   -3.1013   -5.0584    2.3166 H   0  0
   -4.7698   -4.8722    1.6947 H   0  0
   -3.9668   -3.5258    2.4879 H   0  0
    3.2266   -0.9086   -1.3755 H   0  0
    1.4600   -0.8291   -1.3733 H   0  0
    2.2827   -2.4023   -1.2830 H   0  0
    1.1823   -1.0255    3.2793 H   0  0
    1.9231   -2.6373    3.1343 H   0  0
    0.2038   -2.4872    3.2924 H   0  0
   -2.1611   -0.5014    2.9067 H   0  0
   -1.5362   -2.1127    3.2340 H   0  0
   -3.1897   -1.9126    2.8064 H   0  0
    7.1601    0.5745    0.6565 H   0  0
    5.8700    0.5765   -0.5603 H   0  0
    6.3147    3.0725    1.0312 H   0  0
    5.6554    2.5707   -0.5598 H   0  0
    4.2154    2.3052    2.1425 H   0  0
    3.4457    2.9971   -1.3923 H   0  0
    2.5992    4.5732   -0.9770 H   0  0
    2.4442    5.3684    1.1292 H   0  0
    3.8731    4.9232    2.1505 H   0  0
    2.3589    4.0512    2.3706 H   0  0
    5.2509    1.1046    3.1713 H   0  0
    6.0969   -0.4496    3.0384 H   0  0
    4.3241   -0.4073    3.2548 H   0  0
   -4.9306   -0.6658   -1.2857 H   0  0
  1  2  1  0
  2  3  1  0
  3  4  1  0
  4  5  1  0
  5  6  1  0
  6  1  1  0
  4  7  1  0
  7  8  1  0
  8  9  1  0
  9 10  1  0
 10  5  1  0
  9 11  1  0
 11 12  1  0
 12 13  1  0
 13 14  1  0
 14 10  1  0
 11 15  1  0
 15 16  1  0
 16 17  1  0
 17 18  1  0
 18 12  1  0
  2 19  1  0
  3 20  1  0
  3 21  1  0
 11 22  1  0
  9 23  1  0
  5 24  1  0
 17 25  1  0
 25 26  1  0
 26 27  1  0
 27 18  1  0
 27 28  1  0
 28 29  2  0
 28 30  1  0
 17 31  1  0
  1 32  1  0
  1 33  1  0
  2 34  1  0
  4 35  1  0
  6 36  1  0
  6 37  1  0
  7 38  1  0
  7 39  1  0
  8 40  1  0
  8 41  1  0
 10 42  1  0
 12 43  1  0
 13 44  1  0
 13 45  1  0
 14 46  1  0
 14 47  1  0
 15 48  1  0
 15 49  1  0
 16 50  1  0
 16 51  1  0
 18 52  1  0
 19 53  1  0
 20 54  1  0
 20 55  1  0
 20 56  1  0
 21 57  1  0
 21 58  1  0
 21 59  1  0
 22 60  1  0
 22 61  1  0
 22 62  1  0
 23 63  1  0
 23 64  1  0
 23 65  1  0
 24 66  1  0
 24 67  1  0
 24 68  1  0
 25 69  1  0
 25 70  1  0
 26 71  1  0
 26 72  1  0
 27 73  1  0
 29 74  1  0
 29 75  1  0
 30 76  1  0
 30 77  1  0
 30 78  1  0
 31 79  1  0
 31 80  1  0
 31 81  1  0
 32 82  1  0
M  END
> <Name>
JPS2019_SC18

> <Clean Energy>
117.231

$$$$
JPS2019_SC19_1
  SciTegic12132405553D

 82 86  0  0  0  0            999 V2000
   -5.2543   -2.1480    0.2979 C   0  0
   -5.0663   -3.6396   -0.1383 C   0  0  1  0  0  0
   -3.8458   -4.3447    0.5668 C   0  0
   -2.5405   -3.4455    0.2012 C   0  0  1  0  0  0
   -2.6747   -1.8710    0.5903 C   0  0  2  0  0  0
   -3.9535   -1.3429   -0.1104 C   0  0
   -1.1970   -4.0611    0.7781 C   0  0
    0.0206   -3.3176    0.1444 C   0  0
    0.0843   -1.7894    0.4401 C   0  0  2  0  0  0
   -1.3352   -1.1566   -0.0477 C   0  0  2  0  0  0
    1.3095   -1.0609   -0.3929 C   0  0  1  0  0  0
    1.2601    0.5368   -0.1250 C   0  0  2  0  0  0
   -0.1266    1.0939   -0.5870 C   0  0
   -1.3189    0.4112    0.1724 C   0  0
    2.7421   -1.6537    0.0425 C   0  0
    3.9044   -0.9075   -0.6865 C   0  0
    3.8566    0.6102   -0.3534 C   0  0  2  0  0  0
    2.5666    1.1902   -0.8413 C   0  0  2  0  0  0
   -6.2793   -4.3807    0.0988 O   0  0
   -3.6995   -5.7593   -0.0214 C   0  0
   -4.0909   -4.5982    2.1059 C   0  0
    1.1391   -1.3511   -1.9902 C   0  0
    0.4101   -1.6073    2.0119 C   0  0
   -2.8779   -1.5093    2.1580 C   0  0
    4.8385    1.4524   -1.3361 C   0  0
    4.4314    2.8453   -0.8921 C   0  0
    2.8304    2.8076   -0.9076 C   0  0  1  0  0  0
    2.2609    3.4356   -2.2446 C   0  0
    1.4104    2.8397   -3.0895 C   0  0
    2.7498    4.7957   -2.6606 C   0  0
    4.1143    0.8042    1.2666 C   0  0
    5.4155    0.3203    1.6425 O   0  0
   -6.1093   -1.7260   -0.2438 H   0  0
   -5.4482   -2.0850    1.3772 H   0  0
   -4.8659   -3.6286   -1.2204 H   0  0
   -2.4741   -3.4781   -0.9015 H   0  0
   -4.0765   -0.2762    0.1077 H   0  0
   -3.8306   -1.4806   -1.1957 H   0  0
   -1.1867   -4.0008    1.8771 H   0  0
   -1.1128   -5.1075    0.4774 H   0  0
    0.9561   -3.7863    0.4650 H   0  0
   -0.1001   -3.4614   -0.9364 H   0  0
   -1.4081   -1.3584   -1.1263 H   0  0
    1.3462    0.7535    0.9477 H   0  0
   -0.1586    2.1740   -0.3994 H   0  0
   -0.2562    0.9202   -1.6600 H   0  0
   -1.2291    0.6249    1.2491 H   0  0
   -2.2499    0.8469   -0.2004 H   0  0
    2.8889   -1.5228    1.1092 H   0  0
    2.7828   -2.7233   -0.1866 H   0  0
    4.8773   -1.3187   -0.3953 H   0  0
    3.7778   -1.0309   -1.7659 H   0  0
    2.6179    0.9069   -1.8926 H   0  0
   -6.5191   -4.3668    1.0548 H   0  0
   -2.8442   -6.2744    0.4300 H   0  0
   -3.5492   -5.6810   -1.1089 H   0  0
   -4.6146   -6.3316    0.1806 H   0  0
   -3.2228   -5.1178    2.5327 H   0  0
   -4.9791   -5.2352    2.2145 H   0  0
   -4.2610   -3.6925    2.6410 H   0  0
    1.9318   -0.8676   -2.5630 H   0  0
    0.1802   -0.9764   -2.3547 H   0  0
    1.1893   -2.4277   -2.1747 H   0  0
    0.4480   -0.5473    2.2774 H   0  0
    1.3686   -2.0690    2.2507 H   0  0
   -0.3230   -2.0914    2.6121 H   0  0
   -2.9558   -0.4221    2.2675 H   0  0
   -2.0796   -1.8649    2.7528 H   0  0
   -3.7824   -1.9396    2.5402 H   0  0
    5.9056    1.2370   -1.1957 H   0  0
    4.5470    1.2756   -2.3801 H   0  0
    4.7472    2.8501    0.1192 H   0  0
    4.8867    3.7321   -1.3460 H   0  0
    2.6410    3.4304   -0.0219 H   0  0
    1.0336    1.8827   -2.9078 H   0  0
    1.1154    3.3520   -3.9695 H   0  0
    2.0806    5.2381   -3.4106 H   0  0
    3.7466    4.6624   -3.1190 H   0  0
    2.8826    5.4396   -1.7841 H   0  0
    4.0495    1.8559    1.5511 H   0  0
    3.3570    0.2618    1.8420 H   0  0
    5.4911   -0.6473    1.4766 H   0  0
  1  2  1  0
  2  3  1  0
  3  4  1  0
  4  5  1  0
  5  6  1  0
  6  1  1  0
  4  7  1  0
  7  8  1  0
  8  9  1  0
  9 10  1  0
 10  5  1  0
  9 11  1  0
 11 12  1  0
 12 13  1  0
 13 14  1  0
 14 10  1  0
 11 15  1  0
 15 16  1  0
 16 17  1  0
 17 18  1  0
 18 12  1  0
  2 19  1  0
  3 20  1  0
  3 21  1  0
 11 22  1  0
  9 23  1  0
  5 24  1  0
 17 25  1  0
 25 26  1  0
 26 27  1  0
 27 18  1  0
 27 28  1  0
 28 29  2  0
 28 30  1  0
 17 31  1  0
 31 32  1  0
  1 33  1  0
  1 34  1  0
  2 35  1  0
  4 36  1  0
  6 37  1  0
  6 38  1  0
  7 39  1  0
  7 40  1  0
  8 41  1  0
  8 42  1  0
 10 43  1  0
 12 44  1  0
 13 45  1  0
 13 46  1  0
 14 47  1  0
 14 48  1  0
 15 49  1  0
 15 50  1  0
 16 51  1  0
 16 52  1  0
 18 53  1  0
 19 54  1  0
 20 55  1  0
 20 56  1  0
 20 57  1  0
 21 58  1  0
 21 59  1  0
 21 60  1  0
 22 61  1  0
 22 62  1  0
 22 63  1  0
 23 64  1  0
 23 65  1  0
 23 66  1  0
 24 67  1  0
 24 68  1  0
 24 69  1  0
 25 70  1  0
 25 71  1  0
 26 72  1  0
 26 73  1  0
 27 74  1  0
 29 75  1  0
 29 76  1  0
 30 77  1  0
 30 78  1  0
 30 79  1  0
 31 80  1  0
 31 81  1  0
 32 82  1  0
M  END
> <Name>
JPS2019_SC19_1

> <Clean Energy>
133.906

$$$$
JPS2019_SC19_2
  SciTegic12132405553D

 81 85  0  0  0  0            999 V2000
   -5.1677   -1.5462    0.0395 C   0  0
   -5.1503   -2.9462   -0.6679 C   0  0  1  0  0  0
   -3.9313   -3.8468   -0.2093 C   0  0
   -2.5877   -2.9819   -0.5482 C   0  0  1  0  0  0
   -2.5620   -1.5007    0.1293 C   0  0  2  0  0  0
   -3.8498   -0.7720   -0.3530 C   0  0
   -1.2424   -3.7689   -0.2081 C   0  0
   -0.0298   -2.9913   -0.8398 C   0  0
    0.1706   -1.5517   -0.2815 C   0  0  2  0  0  0
   -1.2441   -0.7638   -0.5093 C   0  0  2  0  0  0
    1.3529   -0.7339   -1.1154 C   0  0  1  0  0  0
    1.4323    0.7576   -0.5308 C   0  0  2  0  0  0
    0.0531    1.4751   -0.7100 C   0  0
   -1.0942    0.7226    0.0152 C   0  0
    2.8084   -1.4486   -0.9350 C   0  0
    3.9357   -0.6304   -1.6571 C   0  0
    3.9863    0.7804   -1.0459 C   0  0  2  0  0  0
    2.6135    1.5280   -1.2564 C   0  0  2  0  0  0
   -6.4040   -3.6129   -0.4039 O   0  0
   -3.9099   -5.1576   -1.0330 C   0  0
   -4.1141   -4.3326    1.2698 C   0  0
    1.0090   -0.7133   -2.6982 C   0  0
    0.6544   -1.6888    1.2465 C   0  0
   -2.5972   -1.4186    1.7421 C   0  0
    4.8368    1.6945   -1.8542 C   0  0
    4.4188    3.1500   -1.4380 C   0  0
    3.0532    2.9078   -0.6698 C   0  0  1  0  0  0
    2.1745    4.1244   -0.6906 C   0  0
    1.6615    4.5724   -1.8351 C   0  0
    1.8784    4.8364    0.5878 C   0  0
    4.4830    0.6502    0.4126 C   0  0
    5.8338    0.4366    0.6415 O   0  0
    3.7128    0.7120    1.3787 O   0  0
   -6.0285   -0.9763   -0.3342 H   0  0
   -5.2592   -1.6616    1.1250 H   0  0
   -5.0559   -2.7519   -1.7449 H   0  0
   -2.6136   -2.8278   -1.6354 H   0  0
   -3.8683    0.2436    0.0601 H   0  0
   -3.8296   -0.7198   -1.4500 H   0  0
   -1.1323   -3.9034    0.8756 H   0  0
   -1.2618   -4.7489   -0.6917 H   0  0
    0.8980   -3.5589   -0.6992 H   0  0
   -0.2593   -2.9333   -1.9064 H   0  0
   -1.4274   -0.7541   -1.5850 H   0  0
    1.6730    0.7034    0.5280 H   0  0
    0.1103    2.4831   -0.2983 H   0  0
   -0.1860    1.5404   -1.7758 H   0  0
   -0.8910    0.7118    1.0921 H   0  0
   -2.0202    1.2762   -0.1703 H   0  0
    3.0679   -1.5055    0.1218 H   0  0
    2.7668   -2.4636   -1.3489 H   0  0
    4.9160   -1.1142   -1.5577 H   0  0
    3.6829   -0.5517   -2.7168 H   0  0
    2.4044    1.6106   -2.3280 H   0  0
   -6.4699   -4.4621   -0.8955 H   0  0
   -3.0624   -5.7829   -0.7290 H   0  0
   -3.8226   -4.9125   -2.1002 H   0  0
   -4.8427   -5.7091   -0.8581 H   0  0
   -3.2658   -4.9700    1.5518 H   0  0
   -5.0416   -4.9175    1.3314 H   0  0
   -4.1875   -3.5169    1.9547 H   0  0
    1.7703   -0.1642   -3.2563 H   0  0
    0.0430   -0.2378   -2.8819 H   0  0
    0.9753   -1.7395   -3.0788 H   0  0
    0.7919   -0.7024    1.6996 H   0  0
    1.5978   -2.2353    1.2907 H   0  0
   -0.0535   -2.2397    1.8249 H   0  0
   -2.5798   -0.3680    2.0512 H   0  0
   -1.7754   -1.9250    2.1802 H   0  0
   -3.4913   -1.8545    2.1342 H   0  0
    5.9115    1.4918   -1.9516 H   0  0
    4.3698    1.5730   -2.8414 H   0  0
    5.0908    3.7476   -0.8079 H   0  0
    4.2707    3.6281   -2.4153 H   0  0
    3.2854    2.6990    0.3620 H   0  0
    1.8698    4.0684   -2.7458 H   0  0
    1.0431    5.4331   -1.8354 H   0  0
    1.2996    5.7519    0.4019 H   0  0
    2.8241    5.0555    1.1028 H   0  0
    1.3181    4.1524    1.2420 H   0  0
    5.9944    0.3679    1.6141 H   0  0
  1  2  1  0
  2  3  1  0
  3  4  1  0
  4  5  1  0
  5  6  1  0
  6  1  1  0
  4  7  1  0
  7  8  1  0
  8  9  1  0
  9 10  1  0
 10  5  1  0
  9 11  1  0
 11 12  1  0
 12 13  1  0
 13 14  1  0
 14 10  1  0
 11 15  1  0
 15 16  1  0
 16 17  1  0
 17 18  1  0
 18 12  1  0
  2 19  1  0
  3 20  1  0
  3 21  1  0
 11 22  1  0
  9 23  1  0
  5 24  1  0
 17 25  1  0
 25 26  1  0
 26 27  1  0
 27 18  1  0
 27 28  1  0
 28 29  2  0
 28 30  1  0
 17 31  1  0
 31 32  1  0
 31 33  2  0
  1 34  1  0
  1 35  1  0
  2 36  1  0
  4 37  1  0
  6 38  1  0
  6 39  1  0
  7 40  1  0
  7 41  1  0
  8 42  1  0
  8 43  1  0
 10 44  1  0
 12 45  1  0
 13 46  1  0
 13 47  1  0
 14 48  1  0
 14 49  1  0
 15 50  1  0
 15 51  1  0
 16 52  1  0
 16 53  1  0
 18 54  1  0
 19 55  1  0
 20 56  1  0
 20 57  1  0
 20 58  1  0
 21 59  1  0
 21 60  1  0
 21 61  1  0
 22 62  1  0
 22 63  1  0
 22 64  1  0
 23 65  1  0
 23 66  1  0
 23 67  1  0
 24 68  1  0
 24 69  1  0
 24 70  1  0
 25 71  1  0
 25 72  1  0
 26 73  1  0
 26 74  1  0
 27 75  1  0
 29 76  1  0
 29 77  1  0
 30 78  1  0
 30 79  1  0
 30 80  1  0
 32 81  1  0
M  END
> <Name>
JPS2019_SC19_2

> <Clean Energy>
126.81

$$$$
JPS2019_SC04
  SciTegic12132405553D

 80 83  0  0  0  0            999 V2000
   -6.2212    1.5915   -3.9356 C   0  0
   -7.6021    0.9722   -4.2799 C   0  0
   -7.4352   -0.5007   -4.7163 C   0  0  1  0  0  0
   -6.6284   -1.3167   -3.6752 C   0  0
   -5.3635   -0.6671   -3.2697 C   0  0
   -5.3771    0.7780   -2.8752 C   0  0  1  0  0  0
   -3.8951    1.3785   -2.8416 C   0  0  2  0  0  0
   -4.2385   -1.4204   -3.2532 C   0  0
   -2.9209   -0.9628   -2.8460 C   0  0
   -2.9223    0.3971   -2.0902 C   0  0  1  0  0  0
   -2.2931    3.3569   -2.1619 C   0  0
   -3.7580    2.8769   -2.3869 C   0  0
   -1.4925    1.0129   -1.9432 C   0  0  1  0  0  0
   -1.4721    2.4031   -1.2192 C   0  0  1  0  0  0
    0.6485    1.2328   -0.8138 C   0  0
    0.0883    2.6586   -1.1460 C   0  0  2  0  0  0
   -0.4148    0.1838   -1.2210 C   0  0
   -6.0727    0.8951   -1.4640 C   0  0
   -2.0919    2.3868    0.2333 C   0  0
    0.6374    3.8169   -0.2102 C   0  0  2  0  0  0
    0.0392    5.2118   -0.5935 C   0  0
    2.2083    3.9030   -0.1692 C   0  0
    2.7843    4.5819    1.1166 C   0  0
    4.2846    5.0614    1.0574 C   0  0  1  0  0  0
    4.4862    6.2602    2.0584 C   0  0
    5.8623    6.9706    2.0291 C   0  0
    5.3810    3.9310    1.2183 C   0  0
    5.2966    3.1059    2.5358 C   0  0
    5.5243    2.9881   -0.0091 C   0  0
    0.4345    2.9018   -2.1584 H   0  0
   -1.1204    1.1413   -2.9710 H   0  0
   -3.2997    0.1978   -1.0882 H   0  0
   -3.5377    1.3983   -3.8791 H   0  0
   -8.7220   -1.0856   -4.9029 O   0  0
   -5.6512    1.5564   -4.8640 H   0  0
   -6.4448    2.5510   -3.4693 H   0  0
   -8.1781    0.9580   -3.3545 H   0  0
   -7.9794    1.5121   -5.1484 H   0  0
   -6.9475   -0.5551   -5.6896 H   0  0
   -7.2310   -1.3528   -2.7677 H   0  0
   -6.3261   -2.2420   -4.1658 H   0  0
   -4.4016   -2.4460   -3.5842 H   0  0
   -2.5767   -1.7198   -2.1413 H   0  0
   -2.3863   -0.8071   -3.7830 H   0  0
   -1.8108    3.3083   -3.1382 H   0  0
   -2.3693    4.3099   -1.6384 H   0  0
   -4.2368    2.9360   -1.4094 H   0  0
   -4.1360    3.4751   -3.2160 H   0  0
    1.5146    1.0690   -1.4550 H   0  0
    0.7530    1.1716    0.2695 H   0  0
    0.0360   -0.4879   -1.9516 H   0  0
   -0.8574   -0.2195   -0.3102 H   0  0
   -6.2666   -0.1027   -1.0706 H   0  0
   -5.4178    1.4345   -0.7798 H   0  0
   -7.0143    1.4345   -1.5667 H   0  0
   -2.2304    1.3554    0.5577 H   0  0
   -1.4180    2.8968    0.9216 H   0  0
   -3.0552    2.8968    0.2230 H   0  0
    0.3039    3.5630    0.7960 H   0  0
   -0.1988    5.7669    0.3139 H   0  0
    0.7679    5.7708   -1.1806 H   0  0
   -0.8680    5.0692   -1.1806 H   0  0
    2.5621    2.8724   -0.1400 H   0  0
    2.4924    4.5536   -0.9964 H   0  0
    2.1960    5.4906    1.2438 H   0  0
    2.7598    3.8053    1.8811 H   0  0
    4.4536    5.4048    0.0368 H   0  0
    4.4188    5.8230    3.0546 H   0  0
    3.7716    7.0226    1.7483 H   0  0
    6.2023    7.1462    3.0497 H   0  0
    6.5847    6.3420    1.5085 H   0  0
    5.7681    7.9236    1.5085 H   0  0
    6.3080    4.5008    1.2817 H   0  0
    5.3117    2.0419    2.2997 H   0  0
    6.1476    3.3491    3.1719 H   0  0
    4.3713    3.3491    3.0581 H   0  0
    5.4855    1.9507    0.3232 H   0  0
    4.7099    3.1762   -0.7088 H   0  0
    6.4779    3.1762   -0.5024 H   0  0
   -9.1187   -1.2658   -4.0475 H   0  0
  1  2  1  0
  2  3  1  0
  3  4  1  0
  4  5  1  0
  5  6  1  0
  1  6  1  0
  8  9  1  0
  9 10  1  0
  7 10  1  0
  7  6  1  0
 11 12  1  0
 13 14  1  0
 11 14  1  0
 12  7  1  0
 10 13  1  0
 15 16  1  0
 15 17  1  0
 16 14  1  0
 13 17  1  0
 16 20  1  0
 20 22  1  0
 22 23  1  0
 23 24  1  0
 25 26  1  0
 24 27  1  0
 27 28  1  0
 27 29  1  0
  5  8  2  0
  3 34  1  0
  6 18  1  0
  7 33  1  0
 10 32  1  0
 13 31  1  0
 14 19  1  0
 16 30  1  0
 20 21  1  0
 24 25  1  0
  1 35  1  0
  1 36  1  0
  2 37  1  0
  2 38  1  0
  3 39  1  0
  4 40  1  0
  4 41  1  0
  8 42  1  0
  9 43  1  0
  9 44  1  0
 11 45  1  0
 11 46  1  0
 12 47  1  0
 12 48  1  0
 15 49  1  0
 15 50  1  0
 17 51  1  0
 17 52  1  0
 18 53  1  0
 18 54  1  0
 18 55  1  0
 19 56  1  0
 19 57  1  0
 19 58  1  0
 20 59  1  0
 21 60  1  0
 21 61  1  0
 21 62  1  0
 22 63  1  0
 22 64  1  0
 23 65  1  0
 23 66  1  0
 24 67  1  0
 25 68  1  0
 25 69  1  0
 26 70  1  0
 26 71  1  0
 26 72  1  0
 27 73  1  0
 28 74  1  0
 28 75  1  0
 28 76  1  0
 29 77  1  0
 29 78  1  0
 29 79  1  0
 34 80  1  0
M  END
> <Name>
JPS2019_SC04

$$$$
JPS2019_SC09
  SciTegic12132405553D

 72 76  0  0  0  0            999 V2000
   -2.2038    2.8923    0.1374 C   0  0
   -3.1888    2.4210   -0.7479 C   0  0
   -3.0025    1.1936   -1.4074 C   0  0
   -1.8428    0.4419   -1.1505 C   0  0
   -0.8399    0.9280   -0.2735 C   0  0
   -0.9861    2.1899    0.3614 C   0  0
    0.1169    2.7331    1.2777 C   0  0  1  0  0  0
    0.3347    0.1848   -0.0221 C   0  0
    1.4424    0.7919    0.5352 C   0  0
    1.4553    2.0362    1.0821 C   0  0
    1.5875    4.9541    1.3819 C   0  0
    0.2335    4.2911    1.0379 C   0  0
    2.7791    2.7023    1.4524 C   0  0  2  0  0  0
    2.8420    4.1792    0.8152 C   0  0  2  0  0  0
    4.2014    4.9540    1.2078 C   0  0  1  0  0  0
    4.0848    1.9604    0.9343 C   0  0
    5.4505    2.6093    1.2786 C   0  0
    5.5837    4.1696    1.0729 C   0  0  1  0  0  0
    5.2048    6.8186   -0.5599 C   0  0  1  0  0  0
    4.3786    6.4650    0.7436 C   0  0
    6.2633    4.4373   -0.3230 C   0  0
    6.4957    5.9324   -0.6521 C   0  0
   -4.3039    3.1678   -0.9556 O   0  0
   -3.9226    0.7191   -2.2871 O   0  0
    0.4240   -1.0216   -0.3607 O   0  0
    4.3572    6.7162   -1.7960 C   0  0
    3.3336    7.4343   -1.9120 O   0  0
    4.6779    5.8700   -2.8238 O   0  0
    3.9583    5.6805   -4.0489 C   0  0
    5.6815    8.3165   -0.4840 C   0  0
   -0.4234    2.4731    2.7353 C   0  0
    2.8940    2.6361    3.0300 C   0  0
    6.5861    4.6623    2.1928 C   0  0
    2.6544    4.1290   -0.7536 C   0  0
    4.0626    5.0592    2.2876 H   0  0
   -2.3894    3.8280    0.6647 H   0  0
   -1.7202   -0.5264   -1.6357 H   0  0
    2.3845    0.2437    0.5442 H   0  0
    1.5732    5.9205    0.8778 H   0  0
    1.6655    4.9071    2.4680 H   0  0
   -0.4801    4.7475    1.7238 H   0  0
    0.1221    4.4313   -0.0373 H   0  0
    4.0300    1.9958   -0.1537 H   0  0
    4.0995    0.9993    1.4483 H   0  0
    5.5720    2.4460    2.3495 H   0  0
    6.1538    2.1625    0.5759 H   0  0
    4.9403    6.9332    1.5518 H   0  0
    3.3662    6.8002    0.5180 H   0  0
    5.5567    4.0837   -1.0739 H   0  0
    7.2589    3.9978   -0.2616 H   0  0
    7.1689    6.3001    0.1224 H   0  0
    6.8030    5.9564   -1.6976 H   0  0
   -4.6817    3.4208   -0.1101 H   0  0
   -4.6603    0.3388   -1.8046 H   0  0
    3.8447    4.6139   -4.2423 H   0  0
    2.9741    6.1418   -3.9672 H   0  0
    4.5089    6.1418   -4.8687 H   0  0
    5.7766    8.6150    0.5600 H   0  0
    6.6472    8.4160   -0.9797 H   0  0
    4.9511    8.9558   -0.9797 H   0  0
   -0.4890    1.3995    2.9123 H   0  0
    0.2571    2.9199    3.4601 H   0  0
   -1.4119    2.9199    2.8415 H   0  0
    2.9173    1.5941    3.3492 H   0  0
    3.8096    3.1343    3.3488 H   0  0
    2.0343    3.1343    3.4781 H   0  0
    7.0299    3.7989    2.6886 H   0  0
    7.3728    5.2637    1.7373 H   0  0
    6.0465    5.2637    2.9244 H   0  0
    2.6152    3.0903   -1.0817 H   0  0
    1.7257    4.6310   -1.0247 H   0  0
    3.4931    4.6310   -1.2360 H   0  0
  1  2  2  0
  2  3  1  0
  3  4  2  0
  4  5  1  0
  5  6  2  0
  1  6  1  0
  8  9  1  0
  7 10  1  0
  5  8  1  0
  7  6  1  0
 11 12  1  0
 13 14  1  0
 11 14  1  0
 12  7  1  0
 10 13  1  0
 16 17  1  0
 17 18  1  0
 15 18  1  0
 13 16  1  0
 15 14  1  0
 19 20  1  0
 21 22  1  0
 19 22  1  0
 20 15  1  0
 18 21  1  0
  2 23  1  0
  3 24  1  0
 26 28  1  0
 28 29  1  0
 26 27  2  0
  7 31  1  0
  9 10  2  0
 13 32  1  0
 15 35  1  0
 18 33  1  0
 14 34  1  0
 19 30  1  0
 19 26  1  0
  8 25  2  0
  1 36  1  0
  4 37  1  0
  9 38  1  0
 11 39  1  0
 11 40  1  0
 12 41  1  0
 12 42  1  0
 16 43  1  0
 16 44  1  0
 17 45  1  0
 17 46  1  0
 20 47  1  0
 20 48  1  0
 21 49  1  0
 21 50  1  0
 22 51  1  0
 22 52  1  0
 23 53  1  0
 24 54  1  0
 29 55  1  0
 29 56  1  0
 29 57  1  0
 30 58  1  0
 30 59  1  0
 30 60  1  0
 31 61  1  0
 31 62  1  0
 31 63  1  0
 32 64  1  0
 32 65  1  0
 32 66  1  0
 33 67  1  0
 33 68  1  0
 33 69  1  0
 34 70  1  0
 34 71  1  0
 34 72  1  0
M  END
> <Name>
JPS2019_SC09

$$$$
JPS2019_SC11
  SciTegic12132405553D

101105  0  0  0  0            999 V2000
    3.9209    4.6842    6.9730 C   0  0
    2.9027    4.4530    5.8252 C   0  0  1  0  0  0
    3.6221    3.7250    4.6521 C   0  0
    4.8051    4.4781    4.1835 C   0  0
    5.8689    4.8607    5.1714 C   0  0  2  0  0  0
    5.1642    5.4672    6.4567 C   0  0
    4.8612    4.8065    2.8732 C   0  0
    5.9005    5.5909    2.2552 C   0  0
    7.2169    5.6786    3.0708 C   0  0  2  0  0  0
    6.8888    5.9443    4.5796 C   0  0  2  0  0  0
    8.1211    6.8262    2.5167 C   0  0  1  0  0  0
    9.5492    7.0565    3.2271 C   0  0  2  0  0  0
    9.1601    7.2864    4.7606 C   0  0
    8.2081    6.2146    5.3906 C   0  0
    9.6148    7.9852    0.9478 C   0  0
   10.2383    8.3487    2.4360 C   0  0  2  0  0  0
    1.7518    3.7532    6.3638 O   0  0
   10.4340    5.7212    3.1493 C   0  0
    8.4656    6.8894    1.0079 C   0  0
   11.7845    8.6311    2.4234 C   0  0  1  0  0  0
   12.0379    9.9719    1.6395 C   0  0
   12.3740    8.6984    3.8633 C   0  0
   13.4871   10.2794    1.1647 C   0  0
   13.7900   11.7908    0.8314 C   0  0  2  0  0  0
   13.0012   12.4213   -0.3910 C   0  0
   15.3461   11.9905    0.7300 C   0  0
   13.1274   11.6313   -1.7243 C   0  0
   11.5152   12.7866   -0.0949 C   0  0
   15.8421   13.4571    0.6413 C   0  0
    6.6421    3.5528    5.5783 C   0  0
    0.6628    5.2604    1.7549 O   0  0
   -0.6070    5.0369    2.3596 C   0  0
   -0.5118    3.9131    3.4215 C   0  0  1  0  0  0
    0.4367    4.3262    4.4320 O   0  0
    0.7282    3.3212    5.4352 C   0  0  2  0  0  0
   -0.5682    2.9820    6.2167 C   0  0  2  0  0  0
   -0.3145    1.9382    7.1557 O   0  0
   -1.7093    2.5707    5.2434 C   0  0  1  0  0  0
   -2.9302    2.4373    5.9703 O   0  0
   -1.8828    3.6046    4.0948 C   0  0  2  0  0  0
   -2.8237    3.1175    3.1367 O   0  0
    3.4264    5.3295    7.6990 H   0  0
    4.2767    3.6986    7.2732 H   0  0
    2.4550    5.3663    5.4335 H   0  0
    4.0145    2.7875    5.0462 H   0  0
    2.9333    3.7152    3.8074 H   0  0
    5.8980    5.3963    7.2595 H   0  0
    4.7804    6.4414    6.1536 H   0  0
    4.0279    4.4200    2.2865 H   0  0
    6.1296    5.0537    1.3348 H   0  0
    5.4848    6.5974    2.2096 H   0  0
    7.7462    4.7309    2.9714 H   0  0
    6.3426    6.8831    4.6719 H   0  0
    7.3592    7.5756    2.7312 H   0  0
   10.0916    7.1996    5.3199 H   0  0
    8.5933    8.2171    4.7871 H   0  0
    8.7660    5.2785    5.3666 H   0  0
    7.8873    6.6336    6.3443 H   0  0
    9.1300    8.8897    0.5804 H   0  0
   10.4193    7.5262    0.3732 H   0  0
   10.0754    9.3061    2.9309 H   0  0
   10.6620    5.3771    4.1581 H   0  0
    9.8788    4.9478    2.6185 H   0  0
   11.3626    5.9311    2.6185 H   0  0
    7.5915    7.2757    0.4835 H   0  0
    8.8903    5.9267    0.7235 H   0  0
   12.3005    7.8056    1.9331 H   0  0
   11.4603    9.8777    0.7200 H   0  0
   11.8059   10.7654    2.3499 H   0  0
   12.5284    7.6874    4.2403 H   0  0
   13.3268    9.2274    3.8415 H   0  0
   11.6795    9.2274    4.5159 H   0  0
   14.1241   10.0309    2.0136 H   0  0
   13.5990    9.7413    0.2234 H   0  0
   13.3972   12.3670    1.6691 H   0  0
   13.5139   13.3687   -0.5572 H   0  0
   15.7523   11.6104    1.6673 H   0  0
   15.6393   11.5347   -0.2157 H   0  0
   13.1077   10.5615   -1.5161 H   0  0
   12.2955   11.8892   -2.3797 H   0  0
   14.0676   11.8892   -2.2119 H   0  0
   11.3584   12.8252    0.9831 H   0  0
   11.2865   13.7594   -0.5304 H   0  0
   10.8615   12.0309   -0.5304 H   0  0
   15.9771   13.8564    1.6465 H   0  0
   16.7919   13.4877    0.1075 H   0  0
   15.1058   14.0580    0.1075 H   0  0
    6.6855    3.4795    6.6649 H   0  0
    6.1223    2.6833    5.1759 H   0  0
    7.6545    3.5892    5.1759 H   0  0
    1.3267    5.3772    2.4384 H   0  0
   -0.8432    5.9681    2.8745 H   0  0
   -1.2473    4.6835    1.5513 H   0  0
   -0.1283    3.0030    2.9604 H   0  0
    1.1605    2.4799    4.8936 H   0  0
   -0.8775    3.8257    6.8336 H   0  0
   -0.3983    2.2828    8.0477 H   0  0
   -1.5184    1.5815    4.8274 H   0  0
   -2.7456    2.4574    6.9122 H   0  0
   -2.3403    4.5237    4.4610 H   0  0
   -3.5736    2.7293    3.5934 H   0  0
  2  1  1  0
  2  3  1  0
  3  4  1  0
  5  4  1  0
  5  6  1  0
  6  1  1  0
  4  7  2  0
  7  8  1  0
  9  8  1  0
  9 10  1  0
 10  5  1  0
  9 11  1  0
 11 12  1  0
 12 13  1  0
 13 14  1  0
 10 14  1  0
 16 15  1  0
 12 16  1  0
  2 17  1  0
 12 18  1  0
 15 19  1  0
 11 19  1  0
 16 20  1  0
 20 21  1  0
 20 22  1  0
 21 23  1  0
 24 23  1  0
 24 25  1  0
 24 26  1  0
 25 27  1  0
 25 28  1  0
 26 29  1  0
  5 30  1  0
 31 32  1  0
 33 32  1  0
 33 34  1  0
 34 35  1  0
 35 36  1  0
 36 37  1  0
 36 38  1  0
 38 39  1  0
 38 40  1  0
 33 40  1  0
 40 41  1  0
 35 17  1  0
  1 42  1  0
  1 43  1  0
  2 44  1  0
  3 45  1  0
  3 46  1  0
  6 47  1  0
  6 48  1  0
  7 49  1  0
  8 50  1  0
  8 51  1  0
  9 52  1  0
 10 53  1  0
 11 54  1  0
 13 55  1  0
 13 56  1  0
 14 57  1  0
 14 58  1  0
 15 59  1  0
 15 60  1  0
 16 61  1  0
 18 62  1  0
 18 63  1  0
 18 64  1  0
 19 65  1  0
 19 66  1  0
 20 67  1  0
 21 68  1  0
 21 69  1  0
 22 70  1  0
 22 71  1  0
 22 72  1  0
 23 73  1  0
 23 74  1  0
 24 75  1  0
 25 76  1  0
 26 77  1  0
 26 78  1  0
 27 79  1  0
 27 80  1  0
 27 81  1  0
 28 82  1  0
 28 83  1  0
 28 84  1  0
 29 85  1  0
 29 86  1  0
 29 87  1  0
 30 88  1  0
 30 89  1  0
 30 90  1  0
 31 91  1  0
 32 92  1  0
 32 93  1  0
 33 94  1  0
 35 95  1  0
 36 96  1  0
 37 97  1  0
 38 98  1  0
 39 99  1  0
 40100  1  0
 41101  1  0
M  END
> <Name>
JPS2019_SC11

> <Clean Energy>
171.897

$$$$
GFS2016_MR01
  SciTegic12132405553D

 81 85  0  0  0  0            999 V2000
   -5.0055   -1.5130   -0.3956 C   0  0
   -4.8592   -2.9555   -0.0847 C   0  0
   -3.5938   -3.6036   -0.5057 C   0  0  1  0  0  0
   -2.4293   -2.9257    0.3241 C   0  0  2  0  0  0
   -2.4809   -1.3299   -0.0367 C   0  0  1  0  0  0
   -3.8964   -0.7439    0.3521 C   0  0
   -1.0574   -3.4445   -0.1674 C   0  0
    0.1830   -2.7009    0.4498 C   0  0
    0.1168   -1.1868    0.0113 C   0  0  1  0  0  0
   -1.2601   -0.4522    0.5979 C   0  0  1  0  0  0
    1.5119   -0.3649    0.3328 C   0  0  2  0  0  0
    1.3954    1.0747   -0.1869 C   0  0  1  0  0  0
    0.0954    1.8238    0.4262 C   0  0
   -1.2720    1.0180    0.0242 C   0  0
    2.7946   -1.0488   -0.5436 C   0  0
    4.0509   -0.0005   -1.0502 C   0  0
    4.3896    0.9899   -0.0503 C   0  0  2  0  0  0
    2.8895    1.8539    0.3071 C   0  0  1  0  0  0
    5.5765    2.0220   -0.5777 C   0  0
    5.5567    3.1337    0.4128 C   0  0
    4.2369    3.9991    0.1389 C   0  0
    2.9972    3.1372   -0.3923 C   0  0
    3.9905    4.7277    1.4648 C   0  0
    4.4136    5.0296   -0.9864 C   0  0
    5.0348    0.1452    1.1576 C   0  0
    1.8241   -0.3815    1.9320 C   0  0
   -1.4378   -0.2587    2.1938 C   0  0
   -2.6181   -3.3298    1.8561 C   0  0
   -3.7071   -5.1522   -0.3798 C   0  0
   -5.7762   -3.6024    0.4323 O   0  0
    1.1303    1.1369   -1.8343 C   0  0
   -4.8097   -1.3641   -1.4666 H   0  0
   -6.0000   -1.1385   -0.1179 H   0  0
   -3.3969   -3.3268   -1.5507 H   0  0
   -2.3558   -1.2663   -1.1260 H   0  0
   -4.0487   -0.8440    1.4332 H   0  0
   -3.9640    0.3138    0.0726 H   0  0
   -0.9902   -4.5200    0.0365 H   0  0
   -1.0001   -3.2757   -1.2513 H   0  0
    0.2195   -2.7943    1.5428 H   0  0
    1.0779   -3.1594    0.0163 H   0  0
    0.0205   -1.1792   -1.0767 H   0  0
    0.1784    1.8727    1.5155 H   0  0
    0.0527    2.8451    0.0264 H   0  0
   -2.1648    1.5427    0.3861 H   0  0
   -1.3242    0.9616   -1.0562 H   0  0
    3.1111   -1.9614   -0.0205 H   0  0
    2.4247   -1.3356   -1.5367 H   0  0
    4.9153   -0.5844   -1.3912 H   0  0
    3.6981    0.5914   -1.8794 H   0  0
    2.9130    2.0891    1.3783 H   0  0
    6.5142    1.4546   -0.6421 H   0  0
    5.3558    2.4734   -1.5534 H   0  0
    5.4863    2.6378    1.3653 H   0  0
    6.4195    3.8124    0.4339 H   0  0
    2.1045    3.7727   -0.3410 H   0  0
    3.1702    2.8477   -1.4356 H   0  0
    3.1060    5.3718    1.3666 H   0  0
    4.8682    5.3409    1.7108 H   0  0
    3.8225    3.9895    2.2619 H   0  0
    3.4895    5.6147   -1.0900 H   0  0
    4.6266    4.5106   -1.9312 H   0  0
    5.2482    5.6994   -0.7380 H   0  0
    5.3106    0.8142    1.9784 H   0  0
    5.9374   -0.3556    0.7832 H   0  0
    4.3744   -0.6038    1.5403 H   0  0
    2.7117    0.1233    2.1877 H   0  0
    1.9213   -1.4216    2.2633 H   0  0
    1.0674    0.0797    2.4804 H   0  0
   -2.3956    0.2320    2.3942 H   0  0
   -0.6749    0.3658    2.5988 H   0  0
   -1.4067   -1.1859    2.7089 H   0  0
   -1.8313   -2.9188    2.4602 H   0  0
   -2.5761   -4.4184    1.9579 H   0  0
   -3.5844   -2.9711    2.2304 H   0  0
   -2.7730   -5.6246   -0.7110 H   0  0
   -4.5332   -5.5015   -1.0140 H   0  0
   -3.9110   -5.4360    0.6598 H   0  0
    1.0463    2.1873   -2.1392 H   0  0
    0.2130    0.6257   -2.1104 H   0  0
    1.9213    0.6868   -2.4021 H   0  0
  1  2  1  0
  2  3  1  0
  3  4  1  0
  4  5  1  0
  5  6  1  0
  6  1  1  0
  4  7  1  0
  7  8  1  0
  8  9  1  0
  9 10  1  0
 10  5  1  0
  9 11  1  0
 11 12  1  0
 12 13  1  0
 13 14  1  0
 14 10  1  0
 11 15  1  0
 15 16  1  0
 16 17  1  0
 17 18  1  0
 18 12  1  0
 17 19  1  0
 19 20  1  0
 20 21  1  0
 21 22  1  0
 22 18  1  0
 21 23  1  0
 21 24  1  0
 17 25  1  0
 11 26  1  0
 10 27  1  0
  4 28  1  0
  3 29  1  0
  2 30  2  0
 12 31  1  0
  1 32  1  0
  1 33  1  0
  3 34  1  0
  5 35  1  0
  6 36  1  0
  6 37  1  0
  7 38  1  0
  7 39  1  0
  8 40  1  0
  8 41  1  0
  9 42  1  0
 13 43  1  0
 13 44  1  0
 14 45  1  0
 14 46  1  0
 15 47  1  0
 15 48  1  0
 16 49  1  0
 16 50  1  0
 18 51  1  0
 19 52  1  0
 19 53  1  0
 20 54  1  0
 20 55  1  0
 22 56  1  0
 22 57  1  0
 23 58  1  0
 23 59  1  0
 23 60  1  0
 24 61  1  0
 24 62  1  0
 24 63  1  0
 25 64  1  0
 25 65  1  0
 25 66  1  0
 26 67  1  0
 26 68  1  0
 26 69  1  0
 27 70  1  0
 27 71  1  0
 27 72  1  0
 28 73  1  0
 28 74  1  0
 28 75  1  0
 29 76  1  0
 29 77  1  0
 29 78  1  0
 31 79  1  0
 31 80  1  0
 31 81  1  0
M  END
> <Name>
GFS2016_MR01

> <Clean Energy>
199.724

$$$$
GFS2016_MR02
  SciTegic12132405553D

 83 87  0  0  0  0            999 V2000
   -5.0583   -1.8122    0.8444 C   0  0
   -4.8450   -2.5681   -0.3895 C   0  0  1  0  0  0
   -3.5643   -3.5342   -0.3376 C   0  0  1  0  0  0
   -2.3197   -2.8728    0.4232 C   0  0  2  0  0  0
   -2.3793   -1.3697    0.1064 C   0  0  1  0  0  0
   -3.7478   -0.8082    0.8529 C   0  0
   -1.0152   -3.5132   -0.1055 C   0  0
    0.2459   -2.7431    0.4342 C   0  0
    0.1855   -1.2382   -0.0444 C   0  0  1  0  0  0
   -1.1274   -0.4967    0.5871 C   0  0  1  0  0  0
    1.5705   -0.4868    0.2459 C   0  0  2  0  0  0
    1.4381    0.9771   -0.2336 C   0  0  1  0  0  0
    0.1983    1.6986    0.4260 C   0  0
   -1.1494    0.9474    0.0173 C   0  0
    2.7946   -1.1592   -0.6384 C   0  0
    4.0161   -0.1543   -1.1393 C   0  0
    4.2635    0.9768   -0.1563 C   0  0  2  0  0  0
    2.8352    1.7619    0.1635 C   0  0  1  0  0  0
    5.3407    2.0272   -0.6331 C   0  0
    5.2387    3.1058    0.4175 C   0  0
    3.9840    3.9821    0.0734 C   0  0
    2.8494    3.0901   -0.5529 C   0  0
    3.5257    4.6543    1.3836 C   0  0
    4.3225    5.0652   -0.9651 C   0  0
    4.8894    0.3317    1.1248 C   0  0
    1.9028   -0.5595    1.7772 C   0  0
   -1.1795   -0.3014    2.1557 C   0  0
   -2.4005   -3.1884    1.9873 C   0  0
   -3.7742   -4.9118    0.3350 C   0  0
   -5.9795   -3.3091   -0.8422 O   0  0
    1.1399    1.0086   -1.7955 C   0  0
   -5.9904   -1.2483    0.8085 H   0  0
   -5.0626   -2.4671    1.7157 H   0  0
   -4.6365   -1.8304   -1.1643 H   0  0
   -3.2550   -3.7189   -1.3664 H   0  0
   -2.4957   -1.2462   -0.9703 H   0  0
   -3.4961   -0.6018    1.8931 H   0  0
   -4.0380    0.1186    0.3580 H   0  0
   -0.9679   -4.5510    0.2244 H   0  0
   -1.0160   -3.4775   -1.1949 H   0  0
    0.2548   -2.7782    1.5236 H   0  0
    1.1510   -3.2116    0.0477 H   0  0
    0.0526   -1.2536   -1.1262 H   0  0
    0.3060    1.6824    1.5106 H   0  0
    0.1553    2.7313    0.0800 H   0  0
   -2.0043    1.4865    0.4257 H   0  0
   -1.2290    0.9086   -1.0691 H   0  0
    3.2452   -1.9430   -0.0295 H   0  0
    2.3491   -1.6015   -1.5295 H   0  0
    4.9313   -0.7375   -1.2417 H   0  0
    3.7464    0.2723   -2.1054 H   0  0
    2.8048    1.9660    1.2338 H   0  0
    6.3380    1.5876   -0.6495 H   0  0
    5.0987    2.4173   -1.6217 H   0  0
    5.1189    2.6552    1.4028 H   0  0
    6.1375    3.7223    0.4062 H   0  0
    1.8850    3.5834   -0.4320 H   0  0
    3.0477    2.9339   -1.6133 H   0  0
    2.6518    5.2754    1.1876 H   0  0
    4.3316    5.2751    1.7752 H   0  0
    3.2696    3.8881    2.1154 H   0  0
    3.4310    5.6540   -1.1806 H   0  0
    4.6756    4.5926   -1.8818 H   0  0
    5.1013    5.7174   -0.5699 H   0  0
    5.0861    1.1080    1.8641 H   0  0
    5.8238   -0.1648    0.8627 H   0  0
    4.1950   -0.3982    1.5411 H   0  0
    2.8454   -0.0472    1.9697 H   0  0
    1.9880   -1.6026    2.0820 H   0  0
    1.1062   -0.0792    2.3456 H   0  0
   -2.1061    0.2034    2.4290 H   0  0
   -0.3298    0.3018    2.4757 H   0  0
   -1.1386   -1.2745    2.6451 H   0  0
   -1.5495   -2.7340    2.4946 H   0  0
   -2.3815   -4.2672    2.1422 H   0  0
   -3.3257   -2.7797    2.3936 H   0  0
   -2.8412   -5.4747    0.3103 H   0  0
   -4.5457   -5.4647   -0.2010 H   0  0
   -4.0838   -4.7679    1.3702 H   0  0
   -6.2605   -4.0039   -0.1068 H   0  0
    1.0477    2.0427   -2.1275 H   0  0
    0.2099    0.4779   -1.9991 H   0  0
    1.9576    0.5269   -2.3318 H   0  0
  1  2  1  0
  2  3  1  0
  3  4  1  0
  4  5  1  0
  5  6  1  0
  6  1  1  0
  4  7  1  0
  7  8  1  0
  8  9  1  0
  9 10  1  0
 10  5  1  0
  9 11  1  0
 11 12  1  0
 12 13  1  0
 13 14  1  0
 14 10  1  0
 11 15  1  0
 15 16  1  0
 16 17  1  0
 17 18  1  0
 18 12  1  0
 17 19  1  0
 19 20  1  0
 20 21  1  0
 21 22  1  0
 22 18  1  0
 21 23  1  0
 21 24  1  0
 17 25  1  0
 11 26  1  0
 10 27  1  0
  4 28  1  0
  3 29  1  0
 12 31  1  0
  2 30  1  0
  1 32  1  0
  1 33  1  0
  2 34  1  0
  3 35  1  0
  5 36  1  0
  6 37  1  0
  6 38  1  0
  7 39  1  0
  7 40  1  0
  8 41  1  0
  8 42  1  0
  9 43  1  0
 13 44  1  0
 13 45  1  0
 14 46  1  0
 14 47  1  0
 15 48  1  0
 15 49  1  0
 16 50  1  0
 16 51  1  0
 18 52  1  0
 19 53  1  0
 19 54  1  0
 20 55  1  0
 20 56  1  0
 22 57  1  0
 22 58  1  0
 23 59  1  0
 23 60  1  0
 23 61  1  0
 24 62  1  0
 24 63  1  0
 24 64  1  0
 25 65  1  0
 25 66  1  0
 25 67  1  0
 26 68  1  0
 26 69  1  0
 26 70  1  0
 27 71  1  0
 27 72  1  0
 27 73  1  0
 28 74  1  0
 28 75  1  0
 28 76  1  0
 29 77  1  0
 29 78  1  0
 29 79  1  0
 30 80  1  0
 31 81  1  0
 31 82  1  0
 31 83  1  0
M  END
> <Name>
GFS2016_MR02

> <Clean Energy>
152.802

$$$$
GFS2016_MR03
  SciTegic12132405553D

 84 88  0  0  0  0            999 V2000
   -5.1354   -2.0610    0.6391 C   0  0
   -4.8352   -2.5378   -0.6367 C   0  0  1  0  0  0
   -3.4895   -3.5272   -0.4680 C   0  0  1  0  0  0
   -2.3156   -2.9503    0.5921 C   0  0  2  0  0  0
   -2.3844   -1.5027    0.3258 C   0  0  1  0  0  0
   -3.8755   -1.0210    0.8910 C   0  0
   -0.9665   -3.5155    0.1000 C   0  0
    0.2976   -2.7860    0.6929 C   0  0
    0.1980   -1.2675    0.2158 C   0  0  1  0  0  0
   -1.1664   -0.5551    0.8606 C   0  0  1  0  0  0
    1.5888   -0.4111    0.4435 C   0  0  2  0  0  0
    1.4097    1.0107   -0.1065 C   0  0  1  0  0  0
    0.1218    1.7575    0.5512 C   0  0
   -1.2563    0.9263    0.2420 C   0  0  2  0  0  0
    2.8326   -1.0949   -0.4860 C   0  0
    4.0364   -0.0359   -1.0921 C   0  0
    4.4111    0.9882   -0.1395 C   0  0  2  0  0  0
    2.9138    1.8326    0.2810 C   0  0  1  0  0  0
    5.5441    2.0292   -0.7594 C   0  0
    5.5563    3.1657    0.2031 C   0  0
    4.2054    3.9975   -0.0174 C   0  0
    2.9558    3.0980   -0.4565 C   0  0
    4.0180    4.7554    1.3020 C   0  0
    4.2981    5.0020   -1.1757 C   0  0
    5.1444    0.1876    1.0488 C   0  0
    1.9970   -0.3759    2.0193 C   0  0
   -1.2275   -0.3762    2.4692 C   0  0
   -2.4943   -3.3966    2.1546 C   0  0
   -3.7979   -5.0043   -0.0461 C   0  0
   -5.8746   -3.2602   -1.3214 O   0  0
    1.0527    1.0226   -1.7376 C   0  0
   -2.4064    1.6606    0.7222 O   0  0
   -6.0625   -1.4767    0.7082 H   0  0
   -5.1831   -2.9246    1.3123 H   0  0
   -4.6043   -1.6196   -1.1996 H   0  0
   -3.1221   -3.5321   -1.5025 H   0  0
   -2.3278   -1.4666   -0.7728 H   0  0
   -3.8750   -0.8913    1.9782 H   0  0
   -4.0616   -0.0494    0.4190 H   0  0
   -0.9348   -4.5971    0.2826 H   0  0
   -0.9068   -3.3288   -0.9810 H   0  0
    0.3638   -2.8597    1.7864 H   0  0
    1.1798   -3.2528    0.2408 H   0  0
    0.0498   -1.2888   -0.8658 H   0  0
    0.2512    1.8475    1.6345 H   0  0
    0.0475    2.7617    0.1145 H   0  0
   -1.3601    0.8286   -0.8320 H   0  0
    3.1969   -1.9862    0.0425 H   0  0
    2.4127   -1.4162   -1.4483 H   0  0
    4.8919   -0.6119   -1.4673 H   0  0
    3.6243    0.5261   -1.9146 H   0  0
    2.9925    2.0985    1.3424 H   0  0
    6.4885    1.4790   -0.8629 H   0  0
    5.2593    2.4509   -1.7318 H   0  0
    5.5495    2.6933    1.1700 H   0  0
    6.4044    3.8615    0.1589 H   0  0
    2.0545    3.7175   -0.3711 H   0  0
    3.0761    2.7841   -1.5002 H   0  0
    3.1162    5.3793    1.2377 H   0  0
    4.8950    5.3916    1.4832 H   0  0
    3.9100    4.0349    2.1253 H   0  0
    3.3578    5.5663   -1.2417 H   0  0
    4.4690    4.4632   -2.1179 H   0  0
    5.1311    5.6938   -0.9908 H   0  0
    5.4532    0.8826    1.8355 H   0  0
    6.0342   -0.3042    0.6340 H   0  0
    4.5241   -0.5649    1.4879 H   0  0
    2.8875    0.1505    2.2074 H   0  0
    2.1332   -1.4048    2.3720 H   0  0
    1.2686    0.0888    2.5987 H   0  0
   -2.1848    0.0736    2.7469 H   0  0
   -0.4647    0.2775    2.8163 H   0  0
   -1.1185   -1.3097    2.9729 H   0  0
   -1.6949   -3.0080    2.7564 H   0  0
   -2.4537   -4.4891    2.2244 H   0  0
   -3.4448   -3.0588    2.5675 H   0  0
   -2.8742   -5.5974   -0.0455 H   0  0
   -4.5043   -5.4382   -0.7664 H   0  0
   -4.2520   -5.0302    0.9518 H   0  0
   -6.1600   -4.0438   -0.7975 H   0  0
    0.9299    2.0624   -2.0646 H   0  0
    0.1326    0.4863   -1.9484 H   0  0
    1.8202    0.5727   -2.3367 H   0  0
   -2.3468    1.8400    1.6863 H   0  0
  1  2  1  0
  2  3  1  0
  3  4  1  0
  4  5  1  0
  5  6  1  0
  6  1  1  0
  4  7  1  0
  7  8  1  0
  8  9  1  0
  9 10  1  0
 10  5  1  0
  9 11  1  0
 11 12  1  0
 12 13  1  0
 13 14  1  0
 14 10  1  0
 11 15  1  0
 15 16  1  0
 16 17  1  0
 17 18  1  0
 18 12  1  0
 17 19  1  0
 19 20  1  0
 20 21  1  0
 21 22  1  0
 22 18  1  0
 21 23  1  0
 21 24  1  0
 17 25  1  0
 11 26  1  0
 10 27  1  0
  4 28  1  0
  3 29  1  0
 12 31  1  0
 14 32  1  0
  2 30  1  0
  1 33  1  0
  1 34  1  0
  2 35  1  0
  3 36  1  0
  5 37  1  0
  6 38  1  0
  6 39  1  0
  7 40  1  0
  7 41  1  0
  8 42  1  0
  8 43  1  0
  9 44  1  0
 13 45  1  0
 13 46  1  0
 14 47  1  0
 15 48  1  0
 15 49  1  0
 16 50  1  0
 16 51  1  0
 18 52  1  0
 19 53  1  0
 19 54  1  0
 20 55  1  0
 20 56  1  0
 22 57  1  0
 22 58  1  0
 23 59  1  0
 23 60  1  0
 23 61  1  0
 24 62  1  0
 24 63  1  0
 24 64  1  0
 25 65  1  0
 25 66  1  0
 25 67  1  0
 26 68  1  0
 26 69  1  0
 26 70  1  0
 27 71  1  0
 27 72  1  0
 27 73  1  0
 28 74  1  0
 28 75  1  0
 28 76  1  0
 29 77  1  0
 29 78  1  0
 29 79  1  0
 30 80  1  0
 31 81  1  0
 31 82  1  0
 31 83  1  0
 32 84  1  0
M  END
> <Name>
GFS2016_MR03

> <Clean Energy>
252.552

$$$$
GFS2016_MR04
  SciTegic12132405553D

 81 85  0  0  0  0            999 V2000
   -4.8732   -1.3273   -0.2935 C   0  0
   -4.6448   -2.7964   -0.7827 C   0  0  1  0  0  0
   -3.5968   -3.5809    0.0969 C   0  0
   -2.2244   -2.7063    0.0204 C   0  0  1  0  0  0
   -2.3919   -1.1594    0.4907 C   0  0  2  0  0  0
   -3.5046   -0.5486   -0.4086 C   0  0
   -1.0137   -3.3920    0.7829 C   0  0
    0.2812   -2.6113    0.3869 C   0  0
    0.3102   -1.1292    0.8322 C   0  0  2  0  0  0
   -0.9578   -0.4560    0.1944 C   0  0  2  0  0  0
    1.5564   -0.3769    0.1187 C   0  0
    1.4720    1.1339   -0.2597 C   0  0  1  0  0  0
    0.3949    1.7711    0.5721 C   0  0
   -1.0187    1.1278    0.4527 C   0  0
    2.6845   -1.0349   -0.2835 C   0  0
    3.8834   -0.2727   -0.9984 C   0  0
    4.1978    0.9493   -0.1225 C   0  0  2  0  0  0
    2.8778    1.8541    0.1874 C   0  0  1  0  0  0
    5.4776    1.8506   -0.7167 C   0  0
    5.5672    3.0491    0.1991 C   0  0
    4.3111    3.9790   -0.0332 C   0  0
    3.0334    3.1719   -0.4929 C   0  0
    4.1638    4.7424    1.2850 C   0  0
    4.4907    4.9660   -1.1915 C   0  0
    4.5991    0.2796    1.2971 C   0  0
   -5.9001   -3.5031   -0.8179 O   0  0
    1.1292    1.2729   -1.8528 C   0  0
   -2.8339   -0.8998    2.0146 C   0  0
    0.5028   -1.1165    2.4035 C   0  0
   -4.1337   -3.9112    1.5396 C   0  0
   -3.3756   -4.9649   -0.5399 C   0  0
   -5.6015   -0.8447   -0.9583 H   0  0
   -5.2600   -1.3167    0.7324 H   0  0
   -4.2464   -2.7323   -1.8045 H   0  0
   -1.9616   -2.6751   -1.0456 H   0  0
   -3.6479    0.5064   -0.1464 H   0  0
   -3.1843   -0.6243   -1.4566 H   0  0
   -1.1788   -3.4098    1.8681 H   0  0
   -0.8903   -4.4159    0.4184 H   0  0
    1.1731   -3.1123    0.7856 H   0  0
    0.3083   -2.6386   -0.7114 H   0  0
   -0.7489   -0.6079   -0.8698 H   0  0
    0.7403    1.5775    1.5922 H   0  0
    0.3144    2.8568    0.4339 H   0  0
   -1.4599    1.3787    1.4210 H   0  0
   -1.6367    1.5530   -0.3480 H   0  0
    2.7920   -2.0687   -0.1044 H   0  0
    4.7626   -0.9231   -1.0934 H   0  0
    3.5818    0.0762   -1.9835 H   0  0
    2.9130    2.0126    1.2740 H   0  0
    6.3753    1.2186   -0.7082 H   0  0
    5.2984    2.2200   -1.7376 H   0  0
    5.5106    2.6175    1.1732 H   0  0
    6.4784    3.6598    0.1534 H   0  0
    2.1655    3.8404   -0.4221 H   0  0
    3.1762    2.8869   -1.5414 H   0  0
    3.3116    5.4318    1.2126 H   0  0
    5.0831    5.3110    1.4806 H   0  0
    3.9917    4.0276    2.1026 H   0  0
    3.5950    5.5968   -1.2726 H   0  0
    4.6345    4.4099   -2.1284 H   0  0
    5.3696    5.5963   -0.9988 H   0  0
    4.8482    1.0618    2.0183 H   0  0
    5.4751   -0.3657    1.1495 H   0  0
    3.7905   -0.3094    1.7276 H   0  0
   -6.3150   -3.5315    0.0749 H   0  0
    1.0382    2.3322   -2.1221 H   0  0
    0.1822    0.7749   -2.0765 H   0  0
    1.9044    0.8225   -2.4615 H   0  0
   -2.9054    0.1762    2.1965 H   0  0
   -2.1272   -1.3274    2.6989 H   0  0
   -3.7948   -1.3246    2.2183 H   0  0
    0.5406   -0.0850    2.7680 H   0  0
    1.4490   -1.6193    2.6442 H   0  0
   -0.3052   -1.6416    2.8987 H   0  0
   -3.3739   -4.4801    2.0912 H   0  0
   -5.0405   -4.5222    1.4421 H   0  0
   -4.3829   -3.0299    2.0866 H   0  0
   -2.6328   -5.5312    0.0348 H   0  0
   -3.0223   -4.8357   -1.5721 H   0  0
   -4.3260   -5.5157   -0.5429 H   0  0
  1  2  1  0
  2  3  1  0
  3  4  1  0
  4  5  1  0
  5  6  1  0
  6  1  1  0
  4  7  1  0
  7  8  1  0
  8  9  1  0
  9 10  1  0
 10  5  1  0
  9 11  1  0
 11 12  1  0
 12 13  1  0
 13 14  1  0
 14 10  1  0
 11 15  2  0
 15 16  1  0
 16 17  1  0
 17 18  1  0
 18 12  1  0
 17 19  1  0
 19 20  1  0
 20 21  1  0
 21 22  1  0
 22 18  1  0
 21 23  1  0
 21 24  1  0
 17 25  1  0
 12 27  1  0
  2 26  1  0
  5 28  1  0
  9 29  1  0
  3 30  1  0
  3 31  1  0
  1 32  1  0
  1 33  1  0
  2 34  1  0
  4 35  1  0
  6 36  1  0
  6 37  1  0
  7 38  1  0
  7 39  1  0
  8 40  1  0
  8 41  1  0
 10 42  1  0
 13 43  1  0
 13 44  1  0
 14 45  1  0
 14 46  1  0
 15 47  1  0
 16 48  1  0
 16 49  1  0
 18 50  1  0
 19 51  1  0
 19 52  1  0
 20 53  1  0
 20 54  1  0
 22 55  1  0
 22 56  1  0
 23 57  1  0
 23 58  1  0
 23 59  1  0
 24 60  1  0
 24 61  1  0
 24 62  1  0
 25 63  1  0
 25 64  1  0
 25 65  1  0
 26 66  1  0
 27 67  1  0
 27 68  1  0
 27 69  1  0
 28 70  1  0
 28 71  1  0
 28 72  1  0
 29 73  1  0
 29 74  1  0
 29 75  1  0
 30 76  1  0
 30 77  1  0
 30 78  1  0
 31 79  1  0
 31 80  1  0
 31 81  1  0
M  END
> <Name>
GFS2016_MR04

> <Clean Energy>
194.536

$$$$
GFS2016_MR05
  SciTegic12132405553D

 80 83  0  0  0  0            999 V2000
   -6.5580   -2.5411   -0.1629 C   0  0
   -6.1962   -3.9414   -0.7211 C   0  0  1  0  0  0
   -5.0100   -4.5431    0.0635 C   0  0
   -3.8224   -3.6094    0.0446 C   0  0
   -4.0519   -2.1488    0.3707 C   0  0  2  0  0  0
   -5.3224   -1.6311   -0.3784 C   0  0
   -2.6016   -4.1173   -0.1499 C   0  0
   -1.3675   -3.2502   -0.1758 C   0  0
   -1.5324   -1.8912    0.5539 C   0  0  2  0  0  0
   -2.7831   -1.2425   -0.0267 C   0  0  2  0  0  0
   -0.3015   -1.0046    0.2585 C   0  0  1  0  0  0
   -0.3952    0.3916    0.7742 C   0  0  1  0  0  0
   -1.6647    1.0377    0.1003 C   0  0
   -2.9513    0.2536    0.4858 C   0  0
   -7.3154   -4.8152   -0.6009 O   0  0
   -0.5274    0.5622    2.3712 C   0  0
    1.0463   -1.5389    0.8097 C   0  0
    1.9335   -0.2484    0.8358 C   0  0
    1.0542    0.8763    0.1628 C   0  0  2  0  0  0
    1.5833    2.4327    0.3899 C   0  0  1  0  0  0
    2.9917    2.8328   -0.2434 C   0  0
    0.6564    3.4576   -0.2951 C   0  0
    4.2609    2.0993    0.3156 C   0  0
    5.6401    2.5891   -0.3243 C   0  0  2  0  0  0
    6.8268    1.6323    0.3066 C   0  0
    8.2544    1.8765   -0.2424 C   0  0
    6.5861    0.1348   -0.0469 C   0  0
    5.7569    4.1815   -0.0015 C   0  0
    6.9648    4.9665   -0.5770 C   0  0
   -4.3196   -2.1114    1.9452 C   0  0
   -7.4074   -2.1335   -0.7271 H   0  0
   -6.8263   -2.6102    0.8985 H   0  0
   -5.9216   -3.8357   -1.7797 H   0  0
   -5.3481   -4.6395    1.1039 H   0  0
   -4.7313   -5.5319   -0.3242 H   0  0
   -5.5447   -0.6053   -0.0616 H   0  0
   -5.1127   -1.6416   -1.4566 H   0  0
   -2.5035   -5.1558   -0.3349 H   0  0
   -0.4947   -3.8114    0.1810 H   0  0
   -1.2038   -3.0161   -1.2366 H   0  0
   -1.6424   -2.0043    1.6346 H   0  0
   -2.6455   -1.2244   -1.1162 H   0  0
   -0.2020   -0.8771   -0.8274 H   0  0
   -1.7502    2.0854    0.3919 H   0  0
   -1.5591    0.9653   -0.9909 H   0  0
   -3.0806    0.2780    1.5673 H   0  0
   -3.8249    0.7155    0.0112 H   0  0
   -7.5588   -4.9030    0.3542 H   0  0
   -0.5314    1.6341    2.6089 H   0  0
    0.2982    0.0886    2.9054 H   0  0
   -1.4588    0.1140    2.7286 H   0  0
    0.9281   -1.7922    1.8714 H   0  0
    1.4149   -2.4121    0.2544 H   0  0
    1.9791    0.0306    1.8877 H   0  0
    2.9564   -0.3754    0.4820 H   0  0
    1.0038    0.6777   -0.9158 H   0  0
    1.6164    2.6336    1.4690 H   0  0
    2.9424    2.6817   -1.3303 H   0  0
    3.1110    3.8974   -0.0356 H   0  0
    1.0343    4.4698   -0.0964 H   0  0
   -0.3505    3.3798    0.0942 H   0  0
    0.6511    3.2754   -1.3787 H   0  0
    4.3103    2.2519    1.4020 H   0  0
    4.1389    1.0591    0.1051 H   0  0
    5.6101    2.4445   -1.4127 H   0  0
    6.8317    1.7549    1.3985 H   0  0
    8.9443    1.1676    0.2364 H   0  0
    8.5864    2.8788   -0.0237 H   0  0
    8.2593    1.7127   -1.3287 H   0  0
    7.3855   -0.4701    0.4032 H   0  0
    6.6090    0.0143   -1.1388 H   0  0
    5.6223   -0.2128    0.3382 H   0  0
    4.8822    4.6795   -0.4224 H   0  0
    5.7456    4.3108    1.0897 H   0  0
    6.8641    6.0257   -0.3012 H   0  0
    6.9726    4.8742   -1.6719 H   0  0
    7.8953    4.5922   -0.1711 H   0  0
   -4.5241   -1.0847    2.2671 H   0  0
   -3.4418   -2.4899    2.4813 H   0  0
   -5.1801   -2.7353    2.2050 H   0  0
  1  2  1  0
  2  3  1  0
  3  4  1  0
  4  5  1  0
  5  6  1  0
  6  1  1  0
  4  7  2  0
  7  8  1  0
  8  9  1  0
  9 10  1  0
 10  5  1  0
  9 11  1  0
 11 12  1  0
 12 13  1  0
 13 14  1  0
 14 10  1  0
 12 16  1  0
  2 15  1  0
 11 17  1  0
 17 18  1  0
 18 19  1  0
 19 12  1  0
 19 20  1  0
 20 21  1  0
 20 22  1  0
 21 23  1  0
 23 24  1  0
 24 25  1  0
 25 26  1  0
 25 27  1  0
 24 28  1  0
 28 29  1  0
  5 30  1  0
  1 31  1  0
  1 32  1  0
  2 33  1  0
  3 34  1  0
  3 35  1  0
  6 36  1  0
  6 37  1  0
  7 38  1  0
  8 39  1  0
  8 40  1  0
  9 41  1  0
 10 42  1  0
 11 43  1  0
 13 44  1  0
 13 45  1  0
 14 46  1  0
 14 47  1  0
 15 48  1  0
 16 49  1  0
 16 50  1  0
 16 51  1  0
 17 52  1  0
 17 53  1  0
 18 54  1  0
 18 55  1  0
 19 56  1  0
 20 57  1  0
 21 58  1  0
 21 59  1  0
 22 60  1  0
 22 61  1  0
 22 62  1  0
 23 63  1  0
 23 64  1  0
 24 65  1  0
 25 66  1  0
 26 67  1  0
 26 68  1  0
 26 69  1  0
 27 70  1  0
 27 71  1  0
 27 72  1  0
 28 73  1  0
 28 74  1  0
 29 75  1  0
 29 76  1  0
 29 77  1  0
 30 78  1  0
 30 79  1  0
 30 80  1  0
M  END
> <Name>
GFS2016_MR05

> <Clean Energy>
121.282

$$$$
GFS2016_MR06
  SciTegic12132405553D

 31 33  0  0  0  0            999 V2000
   -4.1236    0.4194   -0.1070 C   0  0
   -4.2413   -0.9039   -0.0271 C   0  0
   -3.0437   -1.7364    0.0656 C   0  0
   -1.8394   -1.1628    0.0693 C   0  0
   -1.7114    0.2673   -0.0168 C   0  0
   -2.7965    1.0333   -0.1015 C   0  0
   -0.6319   -1.9383    0.1581 C   0  0
    0.6572   -1.2452    0.1545 C   0  0
    0.6972    0.1050    0.0705 C   0  0
   -0.4775    0.8349   -0.0119 O   0  0
    1.9619    0.9270    0.0572 C   0  0
   -3.1724   -3.1167    0.1486 O   0  0
   -5.2590    1.2152   -0.1957 O   0  0
   -0.6774   -3.1710    0.2350 O   0  0
    1.8048   -2.0222    0.2398 O   0  0
    3.2007    0.4194    0.1198 C   0  0
    4.3643    1.3079    0.0987 C   0  0
    4.2012    2.6247    0.0177 C   0  0
    2.8610    3.1867   -0.0504 C   0  0
    1.7995    2.3846   -0.0320 C   0  0
    5.3092    3.4629   -0.0021 O   0  0
   -5.2016   -1.3536   -0.0308 H   0  0
   -2.6982    2.0870   -0.1650 H   0  0
   -4.1312   -3.3580    0.1319 H   0  0
   -6.0648    0.6412   -0.1865 H   0  0
    1.5609   -2.9768    0.2926 H   0  0
    3.3576   -0.6120    0.1835 H   0  0
    5.3414    0.8990    0.1482 H   0  0
    2.7299    4.2370   -0.1148 H   0  0
    0.8261    2.8021   -0.0820 H   0  0
    6.1342    2.9195    0.0511 H   0  0
  1  2  2  0
  2  3  1  0
  3  4  2  0
  4  5  1  0
  5  6  2  0
  6  1  1  0
  4  7  1  0
  7  8  1  0
  8  9  2  0
  9 10  1  0
 10  5  1  0
  9 11  1  0
  3 12  1  0
  1 13  1  0
  7 14  2  0
  8 15  1  0
 11 16  2  0
 16 17  1  0
 17 18  2  0
 18 19  1  0
 19 20  2  0
 20 11  1  0
 18 21  1  0
  2 22  1  0
  6 23  1  0
 12 24  1  0
 13 25  1  0
 15 26  1  0
 16 27  1  0
 17 28  1  0
 19 29  1  0
 20 30  1  0
 21 31  1  0
M  END
> <Name>
GFS2016_MR06

> <Clean Energy>
-2.32844

$$$$
GFS2016_MR09
  SciTegic12132405553D

 80 84  0  0  0  0            999 V2000
   -4.9954   -1.3556   -0.5114 C   0  0
   -4.9180   -2.8087   -0.2306 C   0  0
   -3.6666   -3.4994   -0.6241 C   0  0  1  0  0  0
   -2.5035   -2.8841    0.2549 C   0  0  2  0  0  0
   -2.4748   -1.2841   -0.0758 C   0  0  1  0  0  0
   -3.8781   -0.6488    0.2851 C   0  0
   -1.1407   -3.4481   -0.1977 C   0  0
    0.0999   -2.7640    0.4816 C   0  0
    0.1236   -1.2314    0.0689 C   0  0  1  0  0  0
   -1.2372   -0.4683    0.6129 C   0  0  1  0  0  0
    1.5448   -0.4836    0.4999 C   0  0  2  0  0  0
    1.4612    1.0483   -0.0700 C   0  0  1  0  0  0
    0.1416    1.7730    0.5178 C   0  0
   -1.1973    0.9968    0.0697 C   0  0
    2.7742   -1.1999   -0.1699 C   0  0
    4.1115   -0.5022    0.1080 C   0  0
    4.3164    1.0286    0.0620 C   0  0  2  0  0  0
    2.8345    1.8310    0.4417 C   0  0  1  0  0  0
    4.6711    1.6277   -1.2192 C   0  0
    4.9606    3.2651   -1.0114 C   0  0
    3.9503    4.1125    0.0027 C   0  0
    2.7079    3.4195   -0.1778 C   0  0
    4.2525    4.2069    1.5594 C   0  0
    3.9847    5.5692   -0.4516 C   0  0
    5.6224    1.2073    0.9682 C   0  0
    5.0923   -1.2147    0.3452 O   0  0
    1.3046    1.0623   -1.6900 C   0  0
   -1.4292   -0.3101    2.2031 C   0  0
   -2.7630   -3.3072    1.7739 C   0  0
   -3.8464   -5.0443   -0.5309 C   0  0
   -5.8768   -3.4280    0.2427 O   0  0
    1.8518   -0.5865    2.0784 C   0  0
   -4.7623   -1.1918   -1.5727 H   0  0
   -5.9816   -0.9464   -0.2540 H   0  0
   -3.4251   -3.2129   -1.6570 H   0  0
   -2.3143   -1.2033   -1.1593 H   0  0
   -4.0648   -0.7643    1.3594 H   0  0
   -3.8969    0.4157    0.0267 H   0  0
   -1.1238   -4.5286   -0.0105 H   0  0
   -1.0354   -3.2637   -1.2753 H   0  0
    0.0843   -2.8778    1.5730 H   0  0
    0.9898   -3.2569    0.0796 H   0  0
    0.0808   -1.2027   -1.0204 H   0  0
    0.2011    1.8097    1.6095 H   0  0
    0.0892    2.7945    0.1305 H   0  0
   -2.0895    1.5325    0.4149 H   0  0
   -1.2142    0.9613   -1.0171 H   0  0
    2.8463   -2.2419    0.1618 H   0  0
    2.6225   -1.1961   -1.2507 H   0  0
    2.7886    1.7845    1.5287 H   0  0
    5.5531    1.1672   -1.6825 H   0  0
    3.8388    1.4909   -1.8687 H   0  0
    5.9937    3.5313   -0.7468 H   0  0
    4.7692    3.5968   -2.0402 H   0  0
    1.8624    3.9277    0.2982 H   0  0
    2.5625    3.4146   -1.2628 H   0  0
    3.4628    4.8053    2.0333 H   0  0
    5.2195    4.7083    1.6987 H   0  0
    4.2919    3.2444    2.0468 H   0  0
    3.2576    6.1499    0.1328 H   0  0
    3.7276    5.6231   -1.5186 H   0  0
    4.9932    5.9758   -0.2942 H   0  0
    5.9446    2.2268    1.0838 H   0  0
    6.4444    0.6362    0.5163 H   0  0
    5.4066    0.8016    1.9659 H   0  0
    1.2360    2.0935   -2.0468 H   0  0
    0.4116    0.5308   -2.0121 H   0  0
    2.1641    0.5853   -2.1583 H   0  0
   -2.3727    0.2082    2.4042 H   0  0
   -0.6451    0.2761    2.6317 H   0  0
   -1.4357   -1.2516    2.6937 H   0  0
   -1.9836   -2.9413    2.4133 H   0  0
   -2.7694   -4.3982    1.8562 H   0  0
   -3.7262   -2.9156    2.1214 H   0  0
   -2.9219   -5.5487   -0.8412 H   0  0
   -4.6650   -5.3484   -1.1973 H   0  0
   -4.0952   -5.3377    0.4962 H   0  0
    2.8073   -0.1198    2.3204 H   0  0
    1.9025   -1.6433    2.3666 H   0  0
    1.1103   -0.1029    2.6569 H   0  0
  1  2  1  0
  2  3  1  0
  3  4  1  0
  4  5  1  0
  5  6  1  0
  6  1  1  0
  4  7  1  0
  7  8  1  0
  8  9  1  0
  9 10  1  0
 10  5  1  0
  9 11  1  0
 11 12  1  0
 12 13  1  0
 13 14  1  0
 14 10  1  0
 11 15  1  0
 15 16  1  0
 16 17  1  0
 17 18  1  0
 18 12  1  0
 17 19  1  0
 19 20  1  0
 20 21  1  0
 21 22  1  0
 22 18  1  0
 21 23  1  0
 21 24  1  0
 17 25  1  0
 16 26  2  0
 12 27  1  0
 10 28  1  0
  4 29  1  0
  3 30  1  0
  2 31  2  0
 11 32  1  0
  1 33  1  0
  1 34  1  0
  3 35  1  0
  5 36  1  0
  6 37  1  0
  6 38  1  0
  7 39  1  0
  7 40  1  0
  8 41  1  0
  8 42  1  0
  9 43  1  0
 13 44  1  0
 13 45  1  0
 14 46  1  0
 14 47  1  0
 15 48  1  0
 15 49  1  0
 18 50  1  0
 19 51  1  0
 19 52  1  0
 20 53  1  0
 20 54  1  0
 22 55  1  0
 22 56  1  0
 23 57  1  0
 23 58  1  0
 23 59  1  0
 24 60  1  0
 24 61  1  0
 24 62  1  0
 25 63  1  0
 25 64  1  0
 25 65  1  0
 27 66  1  0
 27 67  1  0
 27 68  1  0
 28 69  1  0
 28 70  1  0
 28 71  1  0
 29 72  1  0
 29 73  1  0
 29 74  1  0
 30 75  1  0
 30 76  1  0
 30 77  1  0
 32 78  1  0
 32 79  1  0
 32 80  1  0
M  END
> <Name>
GFS2016_MR09

> <Clean Energy>
161.115

$$$$
GFS2016_MR10
  SciTegic12132405553D

 82 86  0  0  0  0            999 V2000
   -5.3848   -1.5100   -0.4268 C   0  0
   -5.2667   -2.9551   -0.1164 C   0  0
   -4.0106   -3.6258   -0.5302 C   0  0  1  0  0  0
   -2.8394   -2.9705    0.3084 C   0  0  2  0  0  0
   -2.8596   -1.3734   -0.0502 C   0  0  1  0  0  0
   -4.2672   -0.7623    0.3295 C   0  0
   -1.4734   -3.5132   -0.1748 C   0  0
   -0.2240   -2.7930    0.4531 C   0  0
   -0.2595   -1.2767    0.0178 C   0  0  1  0  0  0
   -1.6282   -0.5189    0.5953 C   0  0  1  0  0  0
    1.1474   -0.4803    0.3537 C   0  0  2  0  0  0
    1.0603    0.9627   -0.1622 C   0  0  1  0  0  0
   -0.2316    1.7324    0.4411 C   0  0
   -1.6091    0.9524    0.0248 C   0  0
    2.4272   -1.1827   -0.5131 C   0  0
    3.7060   -0.1528   -1.0035 C   0  0
    4.0510    0.8284    0.0039 C   0  0  2  0  0  0
    2.5614    1.7147    0.3496 C   0  0  1  0  0  0
    5.2599    1.8439   -0.5062 C   0  0
    5.2473    2.9521    0.4897 C   0  0
    3.9436    3.8396    0.2067 C   0  0  1  0  0  0
    2.6965    3.0000   -0.3419 C   0  0
    3.6838    4.5490    1.5488 C   0  0
    4.1472    4.8700   -0.9425 C   0  0
    4.6708   -0.0318    1.2141 C   0  0
    0.8119    1.0345   -1.8117 C   0  0
   -1.8158   -0.3247    2.1903 C   0  0
   -3.0459   -3.3737    1.8383 C   0  0
   -4.1533   -5.1722   -0.4070 C   0  0
   -6.1977   -3.5852    0.3963 O   0  0
    1.4448   -0.5085    1.9556 C   0  0
    5.2609    5.7497   -0.6836 O   0  0
   -5.1789   -1.3635   -1.4962 H   0  0
   -6.3741   -1.1177   -0.1552 H   0  0
   -3.8020   -3.3512   -1.5734 H   0  0
   -2.7256   -1.3104   -1.1384 H   0  0
   -4.4290   -0.8612    1.4093 H   0  0
   -4.3136    0.2968    0.0512 H   0  0
   -1.4270   -4.5901    0.0276 H   0  0
   -1.4054   -3.3435   -1.2578 H   0  0
   -0.1976   -2.8894    1.5461 H   0  0
    0.6660   -3.2663    0.0253 H   0  0
   -0.3469   -1.2647   -1.0710 H   0  0
   -0.1575    1.7769    1.5311 H   0  0
   -0.2527    2.7554    0.0439 H   0  0
   -2.4955    1.4921    0.3804 H   0  0
   -1.6529    0.8994   -1.0563 H   0  0
    2.7234   -2.1022    0.0097 H   0  0
    2.0623   -1.4597   -1.5109 H   0  0
    4.5641   -0.7494   -1.3384 H   0  0
    3.3710    0.4480   -1.8338 H   0  0
    2.5773    1.9438    1.4220 H   0  0
    6.1891    1.2621   -0.5633 H   0  0
    5.0568    2.3028   -1.4818 H   0  0
    5.1591    2.4528    1.4389 H   0  0
    6.1206    3.6167    0.5234 H   0  0
    1.8135    3.6493   -0.2962 H   0  0
    2.8754    2.7132   -1.3849 H   0  0
    2.8064    5.2024    1.4500 H   0  0
    4.5625    5.1495    1.8195 H   0  0
    3.4980    3.7978    2.3296 H   0  0
    4.3450    4.3231   -1.8746 H   0  0
    3.2317    5.4656   -1.0597 H   0  0
    4.9490    0.6291    2.0407 H   0  0
    5.5690   -0.5452    0.8464 H   0  0
    3.9948   -0.7719    1.5868 H   0  0
    0.7488    2.0871   -2.1139 H   0  0
   -0.1114    0.5398   -2.0979 H   0  0
    1.6006    0.5726   -2.3735 H   0  0
   -2.7661    0.1828    2.3837 H   0  0
   -1.0453    0.2853    2.6029 H   0  0
   -1.8055   -1.2530    2.7040 H   0  0
   -2.2558   -2.9782    2.4484 H   0  0
   -3.0243   -4.4631    1.9385 H   0  0
   -4.0079   -2.9981    2.2068 H   0  0
   -3.2259   -5.6614   -0.7326 H   0  0
   -4.9815   -5.5055   -1.0469 H   0  0
   -4.3692   -5.4534    0.6310 H   0  0
    2.3384   -0.0202    2.2213 H   0  0
    1.5212   -1.5514    2.2835 H   0  0
    0.6916   -0.0366    2.4989 H   0  0
    5.0993    6.3014    0.1167 H   0  0
  1  2  1  0
  2  3  1  0
  3  4  1  0
  4  5  1  0
  5  6  1  0
  6  1  1  0
  4  7  1  0
  7  8  1  0
  8  9  1  0
  9 10  1  0
 10  5  1  0
  9 11  1  0
 11 12  1  0
 12 13  1  0
 13 14  1  0
 14 10  1  0
 11 15  1  0
 15 16  1  0
 16 17  1  0
 17 18  1  0
 18 12  1  0
 17 19  1  0
 19 20  1  0
 20 21  1  0
 21 22  1  0
 22 18  1  0
 21 23  1  0
 21 24  1  0
 17 25  1  0
 12 26  1  0
 10 27  1  0
  4 28  1  0
  3 29  1  0
  2 30  2  0
 11 31  1  0
 24 32  1  0
  1 33  1  0
  1 34  1  0
  3 35  1  0
  5 36  1  0
  6 37  1  0
  6 38  1  0
  7 39  1  0
  7 40  1  0
  8 41  1  0
  8 42  1  0
  9 43  1  0
 13 44  1  0
 13 45  1  0
 14 46  1  0
 14 47  1  0
 15 48  1  0
 15 49  1  0
 16 50  1  0
 16 51  1  0
 18 52  1  0
 19 53  1  0
 19 54  1  0
 20 55  1  0
 20 56  1  0
 22 57  1  0
 22 58  1  0
 23 59  1  0
 23 60  1  0
 23 61  1  0
 24 62  1  0
 24 63  1  0
 25 64  1  0
 25 65  1  0
 25 66  1  0
 26 67  1  0
 26 68  1  0
 26 69  1  0
 27 70  1  0
 27 71  1  0
 27 72  1  0
 28 73  1  0
 28 74  1  0
 28 75  1  0
 29 76  1  0
 29 77  1  0
 29 78  1  0
 31 79  1  0
 31 80  1  0
 31 81  1  0
 32 82  1  0
M  END
> <Name>
GFS2016_MR10

> <Clean Energy>
200.101

$$$$
GFS2016_MR11
  SciTegic12132405553D

 81 85  0  0  0  0            999 V2000
   -4.9927   -1.4900   -0.6438 C   0  0
   -4.8910   -2.9336   -0.3274 C   0  0
   -3.6135   -3.6039   -0.6678 C   0  0  1  0  0  0
   -2.4907   -2.9402    0.2287 C   0  0  2  0  0  0
   -2.4855   -1.3494   -0.1409 C   0  0  1  0  0  0
   -3.9141   -0.7395    0.1662 C   0  0
   -1.1063   -3.4808   -0.1675 C   0  0
    0.0951   -2.7495    0.5312 C   0  0
    0.1016   -1.2206    0.0791 C   0  0  1  0  0  0
   -1.2836   -0.4879    0.5626 C   0  0  1  0  0  0
    1.4995   -0.4344    0.5298 C   0  0  2  0  0  0
    1.4261    1.0934   -0.0869 C   0  0  1  0  0  0
    0.0074    1.8083    0.4653 C   0  0  2  0  0  0
   -1.2718    0.9587   -0.0059 C   0  0
    2.7328   -1.1814   -0.0948 C   0  0
    4.0642   -0.5196    0.1904 C   0  0
    4.3230    0.9821    0.0754 C   0  0  2  0  0  0
    2.8612    1.8711    0.4069 C   0  0  1  0  0  0
    4.7158    1.4936   -1.2273 C   0  0
    5.0953    3.1151   -1.0978 C   0  0
    4.1324    4.0624   -0.1378 C   0  0
    2.8606    3.4335   -0.2932 C   0  0
    4.4205    4.2215    1.4161 C   0  0
    4.2529    5.4893   -0.6657 C   0  0
    5.6314    1.1394    0.9883 C   0  0
    5.0127   -1.2529    0.4881 O   0  0
    1.3021    1.0668   -1.6988 C   0  0
   -1.5214   -0.3037    2.1437 C   0  0
   -2.7871   -3.3334    1.7501 C   0  0
   -3.7614   -5.1500   -0.5410 C   0  0
   -5.8488   -3.5638    0.1335 O   0  0
    1.7682   -0.4760    2.1135 C   0  0
   -0.2490    3.1172   -0.0586 O   0  0
   -4.7339   -1.3450   -1.7018 H   0  0
   -5.9946   -1.0979   -0.4231 H   0  0
   -3.3485   -3.3374   -1.7002 H   0  0
   -2.2967   -1.2896   -1.2212 H   0  0
   -4.1278   -0.8343    1.2375 H   0  0
   -3.9507    0.3179   -0.1178 H   0  0
   -1.0700   -4.5555    0.0479 H   0  0
   -0.9719   -3.3209   -1.2459 H   0  0
    0.0492   -2.8364    1.6242 H   0  0
    1.0038   -3.2361    0.1693 H   0  0
    0.0919   -1.2192   -1.0123 H   0  0
    0.0189    1.8653    1.5572 H   0  0
   -2.1927    1.4583    0.3158 H   0  0
   -1.2603    0.9137   -1.0937 H   0  0
    2.7850   -2.2125    0.2685 H   0  0
    2.5999   -1.2047   -1.1787 H   0  0
    2.8107    1.8691    1.4963 H   0  0
    5.5765    0.9653   -1.6572 H   0  0
    3.8797    1.3662   -1.8774 H   0  0
    6.1403    3.3359   -0.8383 H   0  0
    4.9282    3.4061   -2.1431 H   0  0
    2.0760    4.0179    0.1406 H   0  0
    2.7198    3.3799   -1.3789 H   0  0
    3.6599    4.8868    1.8465 H   0  0
    5.4125    4.6745    1.5447 H   0  0
    4.3982    3.2844    1.9518 H   0  0
    3.5550    6.1392   -0.1198 H   0  0
    4.0080    5.5022   -1.7367 H   0  0
    5.2815    5.8462   -0.5181 H   0  0
    6.0024    2.1450    1.0631 H   0  0
    6.4293    0.5110    0.5705 H   0  0
    5.3883    0.7888    2.0004 H   0  0
    1.2416    2.0918   -2.0784 H   0  0
    0.4155    0.5279   -2.0244 H   0  0
    2.1683    0.5786   -2.1379 H   0  0
   -2.4833    0.1927    2.3096 H   0  0
   -0.7651    0.3106    2.5810 H   0  0
   -1.5157   -1.2350    2.6526 H   0  0
   -2.0367   -2.9355    2.4038 H   0  0
   -2.7720   -4.4220    1.8586 H   0  0
   -3.7690   -2.9559    2.0592 H   0  0
   -2.8171   -5.6403   -0.8118 H   0  0
   -4.5531   -5.4892   -1.2226 H   0  0
   -4.0334   -5.4241    0.4856 H   0  0
    2.7156    0.0046    2.3599 H   0  0
    1.8157   -1.5209    2.4430 H   0  0
    1.0082    0.0277    2.6542 H   0  0
    0.3512    3.7580    0.2955 H   0  0
  1  2  1  0
  2  3  1  0
  3  4  1  0
  4  5  1  0
  5  6  1  0
  6  1  1  0
  4  7  1  0
  7  8  1  0
  8  9  1  0
  9 10  1  0
 10  5  1  0
  9 11  1  0
 11 12  1  0
 12 13  1  0
 13 14  1  0
 14 10  1  0
 11 15  1  0
 15 16  1  0
 16 17  1  0
 17 18  1  0
 18 12  1  0
 17 19  1  0
 19 20  1  0
 20 21  1  0
 21 22  1  0
 22 18  1  0
 21 23  1  0
 21 24  1  0
 17 25  1  0
 16 26  2  0
 12 27  1  0
 10 28  1  0
  4 29  1  0
  3 30  1  0
  2 31  2  0
 11 32  1  0
 13 33  1  0
  1 34  1  0
  1 35  1  0
  3 36  1  0
  5 37  1  0
  6 38  1  0
  6 39  1  0
  7 40  1  0
  7 41  1  0
  8 42  1  0
  8 43  1  0
  9 44  1  0
 13 45  1  0
 14 46  1  0
 14 47  1  0
 15 48  1  0
 15 49  1  0
 18 50  1  0
 19 51  1  0
 19 52  1  0
 20 53  1  0
 20 54  1  0
 22 55  1  0
 22 56  1  0
 23 57  1  0
 23 58  1  0
 23 59  1  0
 24 60  1  0
 24 61  1  0
 24 62  1  0
 25 63  1  0
 25 64  1  0
 25 65  1  0
 27 66  1  0
 27 67  1  0
 27 68  1  0
 28 69  1  0
 28 70  1  0
 28 71  1  0
 29 72  1  0
 29 73  1  0
 29 74  1  0
 30 75  1  0
 30 76  1  0
 30 77  1  0
 32 78  1  0
 32 79  1  0
 32 80  1  0
 33 81  1  0
M  END
> <Name>
GFS2016_MR11

> <Clean Energy>
168.245

$$$$
GFS2016_MR12
  SciTegic12132405553D

 81 85  0  0  0  0            999 V2000
   -5.3523   -1.3451   -0.5995 C   0  0
   -5.3135   -2.7903   -0.2759 C   0  0
   -4.0759   -3.5233   -0.6374 C   0  0  1  0  0  0
   -2.9083   -2.9161    0.2420 C   0  0  2  0  0  0
   -2.8350   -1.3253   -0.1282 C   0  0  1  0  0  0
   -4.2289   -0.6462    0.1926 C   0  0
   -1.5509   -3.5238   -0.1736 C   0  0
   -0.3067   -2.8525    0.5168 C   0  0
   -0.2351   -1.3298    0.0752 C   0  0  1  0  0  0
   -1.5924   -0.5217    0.5649 C   0  0  1  0  0  0
    1.1911   -0.6064    0.5367 C   0  0  2  0  0  0
    1.1602    0.9174   -0.0625 C   0  0  1  0  0  0
   -0.1614    1.6810    0.4605 C   0  0
   -1.5009    0.9274   -0.0129 C   0  0
    2.4280   -1.3586   -0.0754 C   0  0
    3.7688   -0.6797    0.2396 C   0  0
    3.9996    0.8493    0.1953 C   0  0  2  0  0  0
    2.5193    1.6816    0.4928 C   0  0  1  0  0  0
    4.4321    1.4286   -1.0697 C   0  0
    4.7431    3.0636   -0.8642 C   0  0
    3.6951    3.9424    0.0797 C   0  0  1  0  0  0
    2.4529    3.2643   -0.1556 C   0  0
    3.8957    4.0396    1.6645 C   0  0
    3.7657    5.4045   -0.4326 C   0  0
    5.2549    1.0163    1.1715 C   0  0
    4.7322   -1.4065    0.5036 O   0  0
    1.0694    0.9040   -1.6858 C   0  0
   -1.8241   -0.3170    2.1470 C   0  0
   -3.2000   -3.2973    1.7671 C   0  0
   -4.2976   -5.0599   -0.5067 C   0  0
   -6.2856   -3.3683    0.2222 O   0  0
    1.4439   -0.6932    2.1275 C   0  0
    5.0725    5.9947   -0.2412 O   0  0
   -5.1018   -1.2164   -1.6612 H   0  0
   -6.3307   -0.9041   -0.3648 H   0  0
   -3.8147   -3.2691   -1.6738 H   0  0
   -2.6536   -1.2770   -1.2107 H   0  0
   -4.4353   -0.7293    1.2664 H   0  0
   -4.2166    0.4115   -0.0928 H   0  0
   -1.5638   -4.5998    0.0386 H   0  0
   -1.4218   -3.3675   -1.2535 H   0  0
   -0.3505   -2.9428    1.6093 H   0  0
    0.5812   -3.3740    0.1465 H   0  0
   -0.2475   -1.3221   -1.0165 H   0  0
   -0.1382    1.7403    1.5520 H   0  0
   -0.1774    2.6946    0.0508 H   0  0
   -2.3893    1.4927    0.2916 H   0  0
   -1.4843    0.8655   -1.1000 H   0  0
    2.4677   -2.3960    0.2760 H   0  0
    2.3168   -1.3729   -1.1613 H   0  0
    2.4210    1.6523    1.5762 H   0  0
    5.3288    0.9469   -1.4802 H   0  0
    3.6295    1.2986   -1.7624 H   0  0
    5.7653    3.3150   -0.5467 H   0  0
    4.6146    3.3845   -1.9058 H   0  0
    1.5937    3.7956    0.2665 H   0  0
    2.3630    3.2419   -1.2470 H   0  0
    3.0857    4.6540    2.0809 H   0  0
    4.8573    4.5225    1.8709 H   0  0
    3.8861    3.0810    2.1594 H   0  0
    3.5466    5.4000   -1.5094 H   0  0
    3.0112    6.0091    0.0893 H   0  0
    5.5849    2.0323    1.2972 H   0  0
    6.0922    0.4292    0.7726 H   0  0
    4.9757    0.6228    2.1589 H   0  0
    1.0356    1.9296   -2.0634 H   0  0
    0.1785    0.3832   -2.0328 H   0  0
    1.9389    0.4025   -2.1106 H   0  0
   -2.7585    0.2294    2.3093 H   0  0
   -1.0380    0.2611    2.5821 H   0  0
   -1.8670   -1.2434    2.6613 H   0  0
   -2.4202   -2.9355    2.4092 H   0  0
   -3.2342   -4.3854    1.8750 H   0  0
   -4.1577   -2.8741    2.0918 H   0  0
   -3.3833   -5.5959   -0.7920 H   0  0
   -5.1162   -5.3597   -1.1748 H   0  0
   -4.5664   -5.3200    0.5247 H   0  0
    2.4010   -0.2447    2.3948 H   0  0
    1.4618   -1.7467    2.4312 H   0  0
    0.6971   -0.1862    2.6747 H   0  0
    5.2955    6.0795    0.7129 H   0  0
  1  2  1  0
  2  3  1  0
  3  4  1  0
  4  5  1  0
  5  6  1  0
  6  1  1  0
  4  7  1  0
  7  8  1  0
  8  9  1  0
  9 10  1  0
 10  5  1  0
  9 11  1  0
 11 12  1  0
 12 13  1  0
 13 14  1  0
 14 10  1  0
 11 15  1  0
 15 16  1  0
 16 17  1  0
 17 18  1  0
 18 12  1  0
 17 19  1  0
 19 20  1  0
 20 21  1  0
 21 22  1  0
 22 18  1  0
 21 23  1  0
 21 24  1  0
 17 25  1  0
 16 26  2  0
 12 27  1  0
 10 28  1  0
  4 29  1  0
  3 30  1  0
  2 31  2  0
 11 32  1  0
 24 33  1  0
  1 34  1  0
  1 35  1  0
  3 36  1  0
  5 37  1  0
  6 38  1  0
  6 39  1  0
  7 40  1  0
  7 41  1  0
  8 42  1  0
  8 43  1  0
  9 44  1  0
 13 45  1  0
 13 46  1  0
 14 47  1  0
 14 48  1  0
 15 49  1  0
 15 50  1  0
 18 51  1  0
 19 52  1  0
 19 53  1  0
 20 54  1  0
 20 55  1  0
 22 56  1  0
 22 57  1  0
 23 58  1  0
 23 59  1  0
 23 60  1  0
 24 61  1  0
 24 62  1  0
 25 63  1  0
 25 64  1  0
 25 65  1  0
 27 66  1  0
 27 67  1  0
 27 68  1  0
 28 69  1  0
 28 70  1  0
 28 71  1  0
 29 72  1  0
 29 73  1  0
 29 74  1  0
 30 75  1  0
 30 76  1  0
 30 77  1  0
 32 78  1  0
 32 79  1  0
 32 80  1  0
 33 81  1  0
M  END
> <Name>
GFS2016_MR12

> <Clean Energy>
162.075

$$$$
GFS2016_MR13
  SciTegic12132405553D

 78 82  0  0  0  0            999 V2000
   -4.9419   -1.3706    0.0842 C   0  0
   -4.9302   -2.7878   -0.3182 C   0  0
   -3.6399   -3.4633   -0.6774 C   0  0  1  0  0  0
   -2.4911   -2.8902    0.2292 C   0  0  2  0  0  0
   -2.4427   -1.3223   -0.0875 C   0  0  1  0  0  0
   -3.8037   -0.6786    0.2010 C   0  0
   -1.1242   -3.4634   -0.2046 C   0  0
    0.1095   -2.7800    0.4970 C   0  0
    0.1379   -1.2514    0.0638 C   0  0  1  0  0  0
   -1.2344   -0.4856    0.5690 C   0  0  1  0  0  0
    1.5436   -0.4883    0.5079 C   0  0  2  0  0  0
    1.4627    1.0321   -0.0926 C   0  0  1  0  0  0
    0.1264    1.7588    0.4523 C   0  0
   -1.1972    0.9639   -0.0073 C   0  0
    2.7902   -1.2093   -0.1227 C   0  0
    4.1173   -0.4983    0.1700 C   0  0
    4.3140    1.0327    0.1010 C   0  0  2  0  0  0
    2.8196    1.8327    0.4339 C   0  0  1  0  0  0
    4.6931    1.6113   -1.1825 C   0  0
    4.9686    3.2539   -0.9975 C   0  0
    3.9312    4.1128   -0.0211 C   0  0
    2.6971    3.4090   -0.2166 C   0  0
    4.1984    4.2363    1.5402 C   0  0
    3.9674    5.5616   -0.4999 C   0  0
    5.5988    1.2356    1.0322 C   0  0
    5.0974   -1.2004    0.4393 O   0  0
    1.3407    1.0151   -1.7154 C   0  0
   -1.4697   -0.3027    2.1450 C   0  0
   -2.7686   -3.3258    1.7420 C   0  0
   -3.8421   -5.0059   -0.6406 C   0  0
   -5.9928   -3.4135   -0.3944 O   0  0
    1.8157   -0.5604    2.0935 C   0  0
   -5.8653   -0.8957    0.2957 H   0  0
   -3.3872   -3.1779   -1.7076 H   0  0
   -2.2715   -1.2812   -1.1717 H   0  0
   -3.8545    0.3357    0.4986 H   0  0
   -1.1182   -4.5448   -0.0204 H   0  0
   -0.9983   -3.2764   -1.2796 H   0  0
    0.0736   -2.8837    1.5889 H   0  0
    1.0068   -3.2765    0.1156 H   0  0
    0.1143   -1.2430   -1.0265 H   0  0
    0.1621    1.8172    1.5442 H   0  0
    0.0757    2.7721    0.0437 H   0  0
   -2.1014    1.4973    0.3097 H   0  0
   -1.1933    0.9042   -1.0933 H   0  0
    2.8612   -2.2446    0.2300 H   0  0
    2.6612   -1.2267   -1.2063 H   0  0
    2.7502    1.8056    1.5202 H   0  0
    5.5877    1.1482   -1.6182 H   0  0
    3.8759    1.4579   -1.8475 H   0  0
    5.9940    3.5311   -0.7150 H   0  0
    4.7980    3.5664   -2.0360 H   0  0
    1.8384    3.9201    0.2316 H   0  0
    2.5755    3.3839   -1.3043 H   0  0
    3.3949    4.8381    1.9859 H   0  0
    5.1591    4.7460    1.6920 H   0  0
    4.2325    3.2828    2.0454 H   0  0
    3.2243    6.1478    0.0581 H   0  0
    3.7338    5.5953   -1.5730 H   0  0
    4.9699    5.9769   -0.3274 H   0  0
    5.9125    2.2589    1.1367 H   0  0
    6.4338    0.6617    0.6086 H   0  0
    5.3635    0.8463    2.0320 H   0  0
    1.2735    2.0390   -2.0926 H   0  0
    0.4580    0.4718   -2.0464 H   0  0
    2.2130    0.5351   -2.1563 H   0  0
   -2.4263    0.2076    2.3060 H   0  0
   -0.7026    0.2998    2.5859 H   0  0
   -1.4816   -1.2397    2.6504 H   0  0
   -1.9885   -2.9686    2.3942 H   0  0
   -2.7875   -4.4186    1.8110 H   0  0
   -3.7309   -2.9275    2.0819 H   0  0
   -2.9158   -5.5132   -0.9407 H   0  0
   -4.6455   -5.2785   -1.3384 H   0  0
   -4.1221   -5.3258    0.3711 H   0  0
    2.7630   -0.0835    2.3480 H   0  0
    1.8658   -1.6114    2.4022 H   0  0
    1.0581   -0.0704    2.6461 H   0  0
  1  2  1  0
  2  3  1  0
  3  4  1  0
  4  5  1  0
  5  6  1  0
  6  1  2  0
  4  7  1  0
  7  8  1  0
  8  9  1  0
  9 10  1  0
 10  5  1  0
  9 11  1  0
 11 12  1  0
 12 13  1  0
 13 14  1  0
 14 10  1  0
 11 15  1  0
 15 16  1  0
 16 17  1  0
 17 18  1  0
 18 12  1  0
 17 19  1  0
 19 20  1  0
 20 21  1  0
 21 22  1  0
 22 18  1  0
 21 23  1  0
 21 24  1  0
 17 25  1  0
 16 26  2  0
 12 27  1  0
 10 28  1  0
  4 29  1  0
  3 30  1  0
  2 31  2  0
 11 32  1  0
  1 33  1  0
  3 34  1  0
  5 35  1  0
  6 36  1  0
  7 37  1  0
  7 38  1  0
  8 39  1  0
  8 40  1  0
  9 41  1  0
 13 42  1  0
 13 43  1  0
 14 44  1  0
 14 45  1  0
 15 46  1  0
 15 47  1  0
 18 48  1  0
 19 49  1  0
 19 50  1  0
 20 51  1  0
 20 52  1  0
 22 53  1  0
 22 54  1  0
 23 55  1  0
 23 56  1  0
 23 57  1  0
 24 58  1  0
 24 59  1  0
 24 60  1  0
 25 61  1  0
 25 62  1  0
 25 63  1  0
 27 64  1  0
 27 65  1  0
 27 66  1  0
 28 67  1  0
 28 68  1  0
 28 69  1  0
 29 70  1  0
 29 71  1  0
 29 72  1  0
 30 73  1  0
 30 74  1  0
 30 75  1  0
 32 76  1  0
 32 77  1  0
 32 78  1  0
M  END
> <Name>
GFS2016_MR13

> <Clean Energy>
159.672

$$$$
GFS2016_MR14
  SciTegic12132405553D

 83 87  0  0  0  0            999 V2000
   -5.3889   -1.5462   -0.6768 C   0  0
   -5.3082   -2.9583   -0.2315 C   0  0
   -4.0284   -3.6644   -0.4809 C   0  0  1  0  0  0
   -2.9236   -2.9387    0.3892 C   0  0  2  0  0  0
   -2.9015   -1.3795   -0.1092 C   0  0  1  0  0  0
   -4.3301   -0.7357    0.0992 C   0  0
   -1.5273   -3.5235    0.0686 C   0  0
   -0.3268   -2.7519    0.7300 C   0  0
   -0.3145   -1.2802    0.1612 C   0  0  1  0  0  0
   -1.7195   -0.4725    0.5566 C   0  0  1  0  0  0
    1.0672   -0.4573    0.5374 C   0  0  2  0  0  0
    1.0349    0.9310   -0.1044 C   0  0  1  0  0  0
   -0.2951    1.7539    0.3206 C   0  0
   -1.6415    0.9429   -0.1377 C   0  0
    2.4081   -1.2371   -0.1557 C   0  0
    3.7311   -0.2519   -0.6278 C   0  0  1  0  0  0
    4.0113    0.8055    0.3345 C   0  0  2  0  0  0
    2.5004    1.7216    0.4715 C   0  0  1  0  0  0
    5.2610    1.7743   -0.1714 C   0  0
    5.1779    2.9717    0.7141 C   0  0
    3.9059    3.8277    0.2505 C   0  0  1  0  0  0
    2.7019    2.9410   -0.3179 C   0  0
    3.5448    4.6555    1.4977 C   0  0
    4.2058    4.7492   -0.9678 C   0  0
    4.5195    0.0757    1.6795 C   0  0
    4.8377   -1.0881   -1.0175 O   0  0
    0.9212    0.8575   -1.7696 C   0  0
   -2.0349   -0.1376    2.1079 C   0  0
   -3.2565   -3.2048    1.9268 C   0  0
   -4.1934   -5.1937   -0.2339 C   0  0
   -6.2829   -3.5394    0.2574 O   0  0
    1.2323   -0.3445    2.1550 C   0  0
    5.3008    5.6502   -0.7025 O   0  0
   -5.0958   -1.4952   -1.7346 H   0  0
   -6.3937   -1.1304   -0.5223 H   0  0
   -3.7337   -3.4834   -1.5238 H   0  0
   -2.6792   -1.4132   -1.1842 H   0  0
   -4.5798   -0.7384    1.1667 H   0  0
   -4.3450    0.2947   -0.2743 H   0  0
   -1.5064   -4.5783    0.3682 H   0  0
   -1.3705   -3.4504   -1.0161 H   0  0
   -0.3895   -2.7512    1.8258 H   0  0
    0.5909   -3.2622    0.4193 H   0  0
   -0.3138   -1.3648   -0.9278 H   0  0
   -0.3104    1.8936    1.4049 H   0  0
   -0.2737    2.7383   -0.1644 H   0  0
   -2.5491    1.5133    0.0954 H   0  0
   -1.5977    0.7950   -1.2099 H   0  0
    2.6484   -2.0688    0.5204 H   0  0
    2.1441   -1.6438   -1.1410 H   0  0
    3.4522    0.3132   -1.4988 H   0  0
    2.4273    2.0447    1.5170 H   0  0
    6.1890    1.1917   -0.1029 H   0  0
    5.1360    2.1406   -1.1981 H   0  0
    5.0136    2.5636    1.6949 H   0  0
    6.0499    3.6376    0.7542 H   0  0
    1.8224    3.5908   -0.4030 H   0  0
    2.9629    2.5619   -1.3130 H   0  0
    2.6819    5.2961    1.2709 H   0  0
    4.4029    5.2792    1.7819 H   0  0
    3.2934    3.9778    2.3260 H   0  0
    4.4735    4.1198   -1.8276 H   0  0
    3.3061    5.3305   -1.2110 H   0  0
    4.7263    0.8176    2.4565 H   0  0
    5.4438   -0.4697    1.4490 H   0  0
    3.8063   -0.6254    2.0601 H   0  0
    5.1411   -1.6480   -0.2651 H   0  0
    0.8935    1.8797   -2.1666 H   0  0
    0.0192    0.3423   -2.0857 H   0  0
    1.7479    0.3451   -2.2235 H   0  0
   -2.9935    0.3861    2.1773 H   0  0
   -1.2956    0.5056    2.5269 H   0  0
   -2.0743   -1.0167    2.7005 H   0  0
   -2.5152   -2.7576    2.5620 H   0  0
   -3.2521   -4.2810    2.1240 H   0  0
   -4.2421   -2.7970    2.1812 H   0  0
   -3.2468   -5.7107   -0.4386 H   0  0
   -4.9698   -5.5814   -0.9073 H   0  0
   -4.4950   -5.3816    0.8038 H   0  0
    2.1031    0.1622    2.4518 H   0  0
    1.2720   -1.3548    2.5778 H   0  0
    0.4412    0.1740    2.5906 H   0  0
    5.0795    6.2723    0.0290 H   0  0
  1  2  1  0
  2  3  1  0
  3  4  1  0
  4  5  1  0
  5  6  1  0
  6  1  1  0
  4  7  1  0
  7  8  1  0
  8  9  1  0
  9 10  1  0
 10  5  1  0
  9 11  1  0
 11 12  1  0
 12 13  1  0
 13 14  1  0
 14 10  1  0
 11 15  1  0
 15 16  1  0
 16 17  1  0
 17 18  1  0
 18 12  1  0
 17 19  1  0
 19 20  1  0
 20 21  1  0
 21 22  1  0
 22 18  1  0
 21 23  1  0
 21 24  1  0
 17 25  1  0
 12 27  1  0
 10 28  1  0
  4 29  1  0
  3 30  1  0
  2 31  2  0
 11 32  1  0
 16 26  1  0
 24 33  1  0
  1 34  1  0
  1 35  1  0
  3 36  1  0
  5 37  1  0
  6 38  1  0
  6 39  1  0
  7 40  1  0
  7 41  1  0
  8 42  1  0
  8 43  1  0
  9 44  1  0
 13 45  1  0
 13 46  1  0
 14 47  1  0
 14 48  1  0
 15 49  1  0
 15 50  1  0
 16 51  1  0
 18 52  1  0
 19 53  1  0
 19 54  1  0
 20 55  1  0
 20 56  1  0
 22 57  1  0
 22 58  1  0
 23 59  1  0
 23 60  1  0
 23 61  1  0
 24 62  1  0
 24 63  1  0
 25 64  1  0
 25 65  1  0
 25 66  1  0
 26 67  1  0
 27 68  1  0
 27 69  1  0
 27 70  1  0
 28 71  1  0
 28 72  1  0
 28 73  1  0
 29 74  1  0
 29 75  1  0
 29 76  1  0
 30 77  1  0
 30 78  1  0
 30 79  1  0
 32 80  1  0
 32 81  1  0
 32 82  1  0
 33 83  1  0
M  END
> <Name>
GFS2016_MR14

> <Clean Energy>
202.517

$$$$
GFS2016_MR15
  SciTegic12132405553D

 83 87  0  0  0  0            999 V2000
   -5.3928   -1.6225   -0.5609 C   0  0
   -5.2036   -3.0413   -0.2166 C   0  0
   -3.9197   -3.6577   -0.5778 C   0  0  1  0  0  0
   -2.7937   -2.9319    0.2666 C   0  0  2  0  0  0
   -2.8515   -1.3310   -0.1455 C   0  0  1  0  0  0
   -4.3514   -0.7799    0.2022 C   0  0  1  0  0  0
   -1.4105   -3.4670   -0.1688 C   0  0
   -0.1899   -2.7271    0.4612 C   0  0
   -0.2124   -1.2330   -0.0199 C   0  0  1  0  0  0
   -1.5981   -0.4436    0.4945 C   0  0  1  0  0  0
    1.1988   -0.4463    0.3402 C   0  0  2  0  0  0
    1.1582    0.9758   -0.2200 C   0  0  1  0  0  0
   -0.1335    1.7809    0.3108 C   0  0
   -1.5072    1.0158   -0.1262 C   0  0
    2.4999   -1.1947   -0.4583 C   0  0
    3.8143   -0.2016   -0.9294 C   0  0
    4.1373    0.8013    0.0620 C   0  0  2  0  0  0
    2.6516    1.7203    0.3239 C   0  0  1  0  0  0
    5.3823    1.7816   -0.4295 C   0  0
    5.3498    2.9188    0.5320 C   0  0
    4.0729    3.8176    0.1715 C   0  0  1  0  0  0
    2.8338    2.9813   -0.4005 C   0  0
    3.7729    4.5714    1.4807 C   0  0
    4.3379    4.8096   -0.9989 C   0  0
    4.6943   -0.0332    1.3198 C   0  0
    0.9711    1.0003   -1.8795 C   0  0
   -1.8368   -0.1983    2.0665 C   0  0
   -3.0230   -3.2889    1.8052 C   0  0
   -4.0112   -5.2051   -0.4069 C   0  0
   -6.1118   -3.7036    0.2966 O   0  0
    1.4348   -0.4291    1.9537 C   0  0
    5.4550    5.6796   -0.7226 O   0  0
   -4.6139    0.5717   -0.1888 O   0  0
   -5.1774   -1.4820   -1.6291 H   0  0
   -6.4111   -1.2917   -0.3159 H   0  0
   -3.6969   -3.4097   -1.6247 H   0  0
   -2.6989   -1.2983   -1.2325 H   0  0
   -4.5315   -0.8725    1.2806 H   0  0
   -1.3546   -4.5352    0.0711 H   0  0
   -1.3198   -3.3332   -1.2552 H   0  0
   -0.1905   -2.7910    1.5566 H   0  0
    0.7097   -3.2126    0.0710 H   0  0
   -0.2664   -1.2541   -1.1109 H   0  0
   -0.0984    1.8598    1.4011 H   0  0
   -0.1212    2.7905   -0.1196 H   0  0
   -2.3671    1.5939    0.1742 H   0  0
   -1.5157    0.9271   -1.2053 H   0  0
    2.7612   -2.1026    0.1020 H   0  0
    2.1679   -1.4961   -1.4606 H   0  0
    4.6738   -0.8220   -1.2141 H   0  0
    3.5215    0.3806   -1.7888 H   0  0
    2.6315    1.9827    1.3884 H   0  0
    6.3029    1.1836   -0.4334 H   0  0
    5.2249    2.2146   -1.4252 H   0  0
    5.2163    2.4494    1.4913 H   0  0
    6.2321    3.5704    0.5805 H   0  0
    1.9608    3.6455   -0.4083 H   0  0
    3.0473    2.6598   -1.4268 H   0  0
    2.9110    5.2350    1.3281 H   0  0
    4.6503    5.1662    1.7678 H   0  0
    3.5445    3.8472    2.2755 H   0  0
    4.5625    4.2319   -1.9059 H   0  0
    3.4375    5.4154   -1.1694 H   0  0
    4.9518    0.6471    2.1373 H   0  0
    5.5970   -0.5719    1.0026 H   0  0
    3.9913   -0.7509    1.6869 H   0  0
    0.9375    2.0439   -2.2156 H   0  0
    0.0503    0.5122   -2.1845 H   0  0
    1.7715    0.5084   -2.3981 H   0  0
   -2.7879    0.3286    2.2026 H   0  0
   -1.0715    0.4147    2.4869 H   0  0
   -1.8615   -1.1068    2.6096 H   0  0
   -2.2578   -2.8511    2.4182 H   0  0
   -2.9745   -4.3732    1.9430 H   0  0
   -4.0027   -2.9281    2.1401 H   0  0
   -3.0609   -5.6728   -0.6947 H   0  0
   -4.8119   -5.5878   -1.0542 H   0  0
   -4.2423   -5.4596    0.6348 H   0  0
    2.3260    0.0536    2.2391 H   0  0
    1.4815   -1.4617    2.3172 H   0  0
    0.6675    0.0717    2.4524 H   0  0
    5.2715    6.2577    0.0540 H   0  0
   -4.1070    1.1880    0.3504 H   0  0
  1  2  1  0
  2  3  1  0
  3  4  1  0
  4  5  1  0
  5  6  1  0
  6  1  1  0
  4  7  1  0
  7  8  1  0
  8  9  1  0
  9 10  1  0
 10  5  1  0
  9 11  1  0
 11 12  1  0
 12 13  1  0
 13 14  1  0
 14 10  1  0
 11 15  1  0
 15 16  1  0
 16 17  1  0
 17 18  1  0
 18 12  1  0
 17 19  1  0
 19 20  1  0
 20 21  1  0
 21 22  1  0
 22 18  1  0
 21 23  1  0
 21 24  1  0
 17 25  1  0
 12 26  1  0
 10 27  1  0
  4 28  1  0
  3 29  1  0
  2 30  2  0
 11 31  1  0
 24 32  1  0
  6 33  1  0
  1 34  1  0
  1 35  1  0
  3 36  1  0
  5 37  1  0
  6 38  1  0
  7 39  1  0
  7 40  1  0
  8 41  1  0
  8 42  1  0
  9 43  1  0
 13 44  1  0
 13 45  1  0
 14 46  1  0
 14 47  1  0
 15 48  1  0
 15 49  1  0
 16 50  1  0
 16 51  1  0
 18 52  1  0
 19 53  1  0
 19 54  1  0
 20 55  1  0
 20 56  1  0
 22 57  1  0
 22 58  1  0
 23 59  1  0
 23 60  1  0
 23 61  1  0
 24 62  1  0
 24 63  1  0
 25 64  1  0
 25 65  1  0
 25 66  1  0
 26 67  1  0
 26 68  1  0
 26 69  1  0
 27 70  1  0
 27 71  1  0
 27 72  1  0
 28 73  1  0
 28 74  1  0
 28 75  1  0
 29 76  1  0
 29 77  1  0
 29 78  1  0
 31 79  1  0
 31 80  1  0
 31 81  1  0
 32 82  1  0
 33 83  1  0
M  END
> <Name>
GFS2016_MR15

> <Clean Energy>
204.538

$$$$
GFS2016_MR16
  SciTegic12132405553D

 83 87  0  0  0  0            999 V2000
   -5.3819   -1.6319   -0.5413 C   0  0
   -5.2437   -3.0667   -0.1948 C   0  0
   -3.9652   -3.7217   -0.5619 C   0  0  1  0  0  0
   -2.8279   -3.0232    0.2885 C   0  0  2  0  0  0
   -2.8684   -1.4363   -0.1096 C   0  0  1  0  0  0
   -4.2968   -0.8450    0.2229 C   0  0
   -1.4419   -3.5484   -0.1459 C   0  0
   -0.2245   -2.7863    0.4951 C   0  0
   -0.2775   -1.2788    0.0197 C   0  0  1  0  0  0
   -1.6678   -0.5419    0.5436 C   0  0  1  0  0  0
    1.1087   -0.4511    0.3653 C   0  0  2  0  0  0
    1.0265    0.9817   -0.1923 C   0  0  1  0  0  0
   -0.3356    1.7490    0.3791 C   0  0  2  0  0  0
   -1.6698    0.9138   -0.0559 C   0  0
    2.3953   -1.1839   -0.4659 C   0  0
    3.6933   -0.1987   -0.9631 C   0  0
    4.0415    0.7924    0.0234 C   0  0  2  0  0  0
    2.5604    1.7365    0.3051 C   0  0  1  0  0  0
    5.2989    1.7457   -0.4870 C   0  0
    5.2976    2.8857    0.4648 C   0  0
    4.0381    3.8006    0.0988 C   0  0  1  0  0  0
    2.7773    2.9818   -0.4516 C   0  0
    3.7589    4.5818    1.3963 C   0  0
    4.3169    4.7707   -1.0883 C   0  0
    4.6127   -0.0485    1.2736 C   0  0
    0.8127    1.0095   -1.8394 C   0  0
   -1.8948   -0.3190    2.1299 C   0  0
   -3.0656   -3.3949    1.8227 C   0  0
   -4.0812   -5.2674   -0.4048 C   0  0
   -6.1747   -3.7030    0.3102 O   0  0
    1.3732   -0.4170    1.9717 C   0  0
    5.4528    5.6220   -0.8305 O   0  0
   -0.4771    3.0701   -0.1503 O   0  0
   -5.1539   -1.5059   -1.6088 H   0  0
   -6.3847   -1.2530   -0.3019 H   0  0
   -3.7363   -3.4681   -1.6062 H   0  0
   -2.7100   -1.3958   -1.1957 H   0  0
   -4.4819   -0.9218    1.3008 H   0  0
   -4.3576    0.2061   -0.0815 H   0  0
   -1.3790   -4.6188    0.0845 H   0  0
   -1.3493   -3.4038   -1.2308 H   0  0
   -0.2231   -2.8547    1.5906 H   0  0
    0.6832   -3.2544    0.1021 H   0  0
   -0.3379   -1.2955   -1.0712 H   0  0
   -0.2979    1.8142    1.4695 H   0  0
   -2.5792    1.4281    0.2777 H   0  0
   -1.6882    0.8485   -1.1385 H   0  0
    2.6746   -2.0918    0.0856 H   0  0
    2.0390   -1.4849   -1.4600 H   0  0
    4.5426   -0.8249   -1.2650 H   0  0
    3.3855    0.3879   -1.8163 H   0  0
    2.5674    2.0142    1.3660 H   0  0
    6.2073    1.1294   -0.4971 H   0  0
    5.1406    2.1751   -1.4834 H   0  0
    5.1618    2.4286    1.4299 H   0  0
    6.1916    3.5220    0.4997 H   0  0
    1.9405    3.6674   -0.4715 H   0  0
    2.9729    2.6331   -1.4733 H   0  0
    2.9092    5.2594    1.2362 H   0  0
    4.6489    5.1642    1.6697 H   0  0
    3.5201    3.8757    2.2043 H   0  0
    4.5249    4.1761   -1.9882 H   0  0
    3.4279    5.3919   -1.2629 H   0  0
    4.8936    0.6299    2.0850 H   0  0
    5.5033   -0.5976    0.9401 H   0  0
    3.9108   -0.7576    1.6563 H   0  0
    0.7527    2.0543   -2.1686 H   0  0
   -0.1030    0.5043   -2.1307 H   0  0
    1.6152    0.5374   -2.3724 H   0  0
   -2.8599    0.1712    2.2917 H   0  0
   -1.1478    0.3151    2.5468 H   0  0
   -1.8758   -1.2357    2.6628 H   0  0
   -2.2995   -2.9704    2.4431 H   0  0
   -3.0257   -4.4810    1.9492 H   0  0
   -4.0437   -3.0301    2.1581 H   0  0
   -3.1368   -5.7456   -0.6959 H   0  0
   -4.8868   -5.6321   -1.0562 H   0  0
   -4.3172   -5.5281    0.6342 H   0  0
    2.2598    0.0884    2.2373 H   0  0
    1.4486   -1.4464    2.3404 H   0  0
    0.6038    0.0716    2.4810 H   0  0
    5.2854    6.2149   -0.0613 H   0  0
    0.2347    3.6426    0.1695 H   0  0
  1  2  1  0
  2  3  1  0
  3  4  1  0
  4  5  1  0
  5  6  1  0
  6  1  1  0
  4  7  1  0
  7  8  1  0
  8  9  1  0
  9 10  1  0
 10  5  1  0
  9 11  1  0
 11 12  1  0
 12 13  1  0
 13 14  1  0
 14 10  1  0
 11 15  1  0
 15 16  1  0
 16 17  1  0
 17 18  1  0
 18 12  1  0
 17 19  1  0
 19 20  1  0
 20 21  1  0
 21 22  1  0
 22 18  1  0
 21 23  1  0
 21 24  1  0
 17 25  1  0
 12 26  1  0
 10 27  1  0
  4 28  1  0
  3 29  1  0
  2 30  2  0
 11 31  1  0
 24 32  1  0
 13 33  1  0
  1 34  1  0
  1 35  1  0
  3 36  1  0
  5 37  1  0
  6 38  1  0
  6 39  1  0
  7 40  1  0
  7 41  1  0
  8 42  1  0
  8 43  1  0
  9 44  1  0
 13 45  1  0
 14 46  1  0
 14 47  1  0
 15 48  1  0
 15 49  1  0
 16 50  1  0
 16 51  1  0
 18 52  1  0
 19 53  1  0
 19 54  1  0
 20 55  1  0
 20 56  1  0
 22 57  1  0
 22 58  1  0
 23 59  1  0
 23 60  1  0
 23 61  1  0
 24 62  1  0
 24 63  1  0
 25 64  1  0
 25 65  1  0
 25 66  1  0
 26 67  1  0
 26 68  1  0
 26 69  1  0
 27 70  1  0
 27 71  1  0
 27 72  1  0
 28 73  1  0
 28 74  1  0
 28 75  1  0
 29 76  1  0
 29 77  1  0
 29 78  1  0
 31 79  1  0
 31 80  1  0
 31 81  1  0
 32 82  1  0
 33 83  1  0
M  END
> <Name>
GFS2016_MR16

> <Clean Energy>
202.029

$$$$
GFS2016_MR17
  SciTegic12132405553D

 84 88  0  0  0  0            999 V2000
   -5.5286   -1.3455   -0.4821 C   0  0
   -5.4597   -2.8164   -0.3118 C   0  0
   -4.2143   -3.4827   -0.7617 C   0  0  1  0  0  0
   -3.0444   -2.9462    0.1595 C   0  0  2  0  0  0
   -3.0082   -1.3236   -0.0437 C   0  0  1  0  0  0
   -4.4074   -0.7093    0.3656 C   0  0
   -1.6862   -3.4847   -0.3432 C   0  0
   -0.4330   -2.8690    0.3771 C   0  0
   -0.3977   -1.3158    0.0817 C   0  0  1  0  0  0
   -1.7646   -0.5732    0.7057 C   0  0  1  0  0  0
    1.0470   -0.6129    0.5497 C   0  0  2  0  0  0
    0.9870    0.9395    0.0950 C   0  0  1  0  0  0
   -0.3166    1.6510    0.7807 C   0  0
   -1.7026    0.9296    0.2950 C   0  0
    2.3346   -1.2783   -0.2247 C   0  0
    3.8086   -0.6619    0.1550 C   0  0  1  0  0  0
    3.9900    0.9029   -0.0910 C   0  0  2  0  0  0
    2.4984    1.6822    0.5492 C   0  0  1  0  0  0
    4.0496    1.4881   -1.4150 C   0  0
    4.3158    3.1481   -1.2426 C   0  0
    3.5090    3.9699   -0.0160 C   0  0  1  0  0  0
    2.2715    3.2797    0.0050 C   0  0
    4.0742    4.0134    1.4818 C   0  0
    3.4323    5.4498   -0.4713 C   0  0
    5.5084    1.1751    0.5169 C   0  0
    0.7114    1.0554   -1.5278 C   0  0
   -1.9825   -0.5252    2.3067 C   0  0
   -3.2990   -3.4852    1.6401 C   0  0
   -4.4046   -5.0288   -0.7895 C   0  0
   -6.4209   -3.4639    0.1165 O   0  0
    1.2670   -0.8236    2.1080 C   0  0
    4.7384    6.0640   -0.5708 O   0  0
    6.5235    0.4707   -0.2392 O   0  0
    4.1915   -0.8881    1.5388 O   0  0
   -5.2943   -1.1027   -1.5279 H   0  0
   -6.5123   -0.9511   -0.1936 H   0  0
   -3.9733   -3.1173   -1.7695 H   0  0
   -2.8481   -1.1598   -1.1178 H   0  0
   -4.5965   -0.9067    1.4274 H   0  0
   -4.4181    0.3725    0.1905 H   0  0
   -1.6785   -4.5766   -0.2413 H   0  0
   -1.5853   -3.2177   -1.4039 H   0  0
   -0.4412   -3.0670    1.4565 H   0  0
    0.4513   -3.3343   -0.0702 H   0  0
   -0.4518   -1.2118   -0.9992 H   0  0
   -0.2300    1.6116    1.8717 H   0  0
   -0.3596    2.6980    0.4647 H   0  0
   -2.5814    1.4489    0.6964 H   0  0
   -1.7417    0.9862   -0.7851 H   0  0
    2.3666   -2.3493    0.0075 H   0  0
    2.1852   -1.1563   -1.2986 H   0  0
    4.5674   -1.2021   -0.4223 H   0  0
    2.5888    1.5888    1.6376 H   0  0
    4.8387    1.0607   -2.0465 H   0  0
    3.1497    1.3246   -1.8750 H   0  0
    5.3740    3.4399   -1.1835 H   0  0
    3.9159    3.4904   -2.2061 H   0  0
    1.5038    3.7641    0.6187 H   0  0
    1.9700    3.3109   -1.0402 H   0  0
    3.3760    4.5914    2.1018 H   0  0
    5.0506    4.5118    1.4770 H   0  0
    4.1958    3.0346    1.9242 H   0  0
    2.9647    5.4777   -1.4654 H   0  0
    2.8134    6.0167    0.2376 H   0  0
    5.7934    2.2098    0.5156 H   0  0
    5.5416    0.8353    1.5572 H   0  0
    0.6519    2.1044   -1.8229 H   0  0
   -0.2116    0.5753   -1.8251 H   0  0
    1.5053    0.5786   -2.0841 H   0  0
   -2.9235   -0.0120    2.5287 H   0  0
   -1.2043    0.0239    2.7893 H   0  0
   -2.0071   -1.4984    2.7304 H   0  0
   -2.5125   -3.1743    2.3015 H   0  0
   -3.3123   -4.5793    1.6367 H   0  0
   -4.2579   -3.1158    2.0225 H   0  0
   -3.4845   -5.5136   -1.1412 H   0  0
   -5.2269   -5.2741   -1.4752 H   0  0
   -4.6528   -5.4001    0.2123 H   0  0
    2.1375   -0.3698    2.4283 H   0  0
    1.3191   -1.8953    2.3318 H   0  0
    0.5089   -0.3955    2.6691 H   0  0
    5.1813    6.1175    0.3053 H   0  0
    6.4100   -0.5031   -0.1856 H   0  0
    3.7916   -0.2859    2.1481 H   0  0
  1  2  1  0
  2  3  1  0
  3  4  1  0
  4  5  1  0
  5  6  1  0
  6  1  1  0
  4  7  1  0
  7  8  1  0
  8  9  1  0
  9 10  1  0
 10  5  1  0
  9 11  1  0
 11 12  1  0
 12 13  1  0
 13 14  1  0
 14 10  1  0
 11 15  1  0
 15 16  1  0
 16 17  1  0
 17 18  1  0
 18 12  1  0
 17 19  1  0
 19 20  1  0
 20 21  1  0
 21 22  1  0
 22 18  1  0
 21 23  1  0
 21 24  1  0
 17 25  1  0
 12 26  1  0
 10 27  1  0
  4 28  1  0
  3 29  1  0
  2 30  2  0
 11 31  1  0
 24 32  1  0
 25 33  1  0
 16 34  1  0
  1 35  1  0
  1 36  1  0
  3 37  1  0
  5 38  1  0
  6 39  1  0
  6 40  1  0
  7 41  1  0
  7 42  1  0
  8 43  1  0
  8 44  1  0
  9 45  1  0
 13 46  1  0
 13 47  1  0
 14 48  1  0
 14 49  1  0
 15 50  1  0
 15 51  1  0
 16 52  1  0
 18 53  1  0
 19 54  1  0
 19 55  1  0
 20 56  1  0
 20 57  1  0
 22 58  1  0
 22 59  1  0
 23 60  1  0
 23 61  1  0
 23 62  1  0
 24 63  1  0
 24 64  1  0
 25 65  1  0
 25 66  1  0
 26 67  1  0
 26 68  1  0
 26 69  1  0
 27 70  1  0
 27 71  1  0
 27 72  1  0
 28 73  1  0
 28 74  1  0
 28 75  1  0
 29 76  1  0
 29 77  1  0
 29 78  1  0
 31 79  1  0
 31 80  1  0
 31 81  1  0
 32 82  1  0
 33 83  1  0
 34 84  1  0
M  END
> <Name>
GFS2016_MR17

> <Clean Energy>
163.872

$$$$
GFS2016_MR07
  SciTegic12132405553D

 93 98  0  0  0  0            999 V2000
   -9.0431   -1.0612    0.0432 C   0  0
  -10.2780   -1.5876    0.4587 C   0  0
  -10.4362   -2.9798    0.5830 C   0  0
   -9.3728   -3.8527    0.2746 C   0  0
   -8.1201   -3.3376   -0.1517 C   0  0
   -7.9828   -1.9298   -0.2727 C   0  0
   -6.8111   -1.4008   -0.7160 O   0  0
   -6.9915   -4.1317   -0.4845 C   0  0
   -5.8121   -3.5531   -1.0047 C   0  0
   -5.7274   -2.1444   -1.0810 C   0  0
   -2.1996   -0.9342   -1.4306 C   0  0
   -3.3057   -1.6922   -1.0049 C   0  0
   -4.5920   -1.4396   -1.5347 C   0  0
   -4.7450   -0.4328   -2.5165 C   0  0
   -3.6373    0.3160   -2.9487 C   0  0
   -2.3663    0.0755   -2.3974 C   0  0
   -1.3129    0.8269   -2.7942 O   0  0
  -11.3148   -0.7515    0.7169 O   0  0
   -9.6216   -5.1820    0.3786 O   0  0
   -7.0066   -5.3779   -0.3482 O   0  0
   -4.7933   -4.3616   -1.4606 O   0  0
   -8.7645   -5.3162   -4.1557 O   0  0
   -7.7775   -6.1915   -4.6892 C   0  0
   -6.3656   -5.5650   -4.5724 C   0  0  1  0  0  0
   -6.1264   -5.2980   -3.1766 O   0  0
   -4.8789   -4.6270   -2.8835 C   0  0  2  0  0  0
   -3.6703   -5.5011   -3.3281 C   0  0  2  0  0  0
   -2.4924   -4.7148   -3.0074 O   0  0
   -3.8360   -5.8987   -4.8334 C   0  0  1  0  0  0
   -2.8871   -6.8856   -5.2354 O   0  0
   -5.2450   -6.4990   -5.1141 C   0  0  2  0  0  0
   -5.4174   -6.7442   -6.5123 O   0  0
   -1.1949   -5.3481   -3.0683 C   0  0  2  0  0  0
   -1.1193   -6.6156   -2.3793 O   0  0
   -1.2739   -6.5362   -0.9465 C   0  0  2  0  0  0
   -0.1656   -5.6510   -0.3043 C   0  0  1  0  0  0
   -0.0757   -4.2536   -0.9971 C   0  0  2  0  0  0
   -0.0859   -4.3907   -2.5492 C   0  0  1  0  0  0
    1.1824   -4.8743   -2.9957 O   0  0
    1.1262   -3.5057   -0.6778 O   0  0
   -0.4574   -5.5041    1.0872 O   0  0
   -1.2557   -8.0122   -0.3858 C   0  0
   -1.0767    0.1150    1.9101 O   0  0
   -0.8704   -0.9460    2.8378 C   0  0
    0.3986   -1.7678    2.4973 C   0  0  1  0  0  0
    0.2610   -2.2479    1.1396 O   0  0
    1.3547   -3.0719    0.6771 C   0  0  2  0  0  0
    2.6745   -2.2569    0.7017 C   0  0  2  0  0  0
    3.7663   -3.0632    0.2601 O   0  0
    2.9431   -1.7157    2.1317 C   0  0  1  0  0  0
    4.0816   -0.8558    2.1135 O   0  0
    1.7111   -0.9425    2.6812 C   0  0  2  0  0  0
    1.9203   -0.6259    4.0607 O   0  0
   -8.9072    0.0175   -0.0341 H   0  0
  -11.3891   -3.3873    0.9207 H   0  0
   -1.2124   -1.1289   -1.0114 H   0  0
   -3.1703   -2.4787   -0.2624 H   0  0
   -5.7296   -0.2364   -2.9410 H   0  0
   -3.7634    1.0839   -3.7119 H   0  0
   -0.9154    1.3376   -1.9673 H   0  0
  -11.0477   -0.0892    1.4867 H   0  0
   -9.8986   -5.4106    1.3653 H   0  0
   -8.5590   -5.1322   -3.1426 H   0  0
   -7.7980   -7.1315   -4.1377 H   0  0
   -7.9984   -6.3811   -5.7396 H   0  0
   -6.3451   -4.6253   -5.1244 H   0  0
   -4.8498   -3.6805   -3.4233 H   0  0
   -3.6573   -6.4101   -2.7267 H   0  0
   -3.7025   -5.0096   -5.4496 H   0  0
   -1.9149   -6.5122   -5.1012 H   0  0
   -5.3170   -7.4528   -4.5915 H   0  0
   -5.3206   -5.8421   -7.0409 H   0  0
   -0.9830   -5.5426   -4.1197 H   0  0
   -2.2447   -6.0924   -0.7257 H   0  0
    0.7936   -6.1577   -0.4102 H   0  0
   -0.9408   -3.6625   -0.6966 H   0  0
   -0.2511   -3.4040   -2.9820 H   0  0
    1.9349   -4.2000   -2.7101 H   0  0
   -1.3951   -5.0458    1.2022 H   0  0
   -1.3706   -7.9912    0.6979 H   0  0
   -0.3081   -8.4867   -0.6410 H   0  0
   -2.0758   -8.5790   -0.8266 H   0  0
   -0.2500    0.7621    1.9282 H   0  0
   -0.7605   -0.5247    3.8371 H   0  0
   -1.7361   -1.6079    2.8152 H   0  0
    0.4387   -2.6294    3.1637 H   0  0
    1.4532   -3.9425    1.3256 H   0  0
    2.5720   -1.4098    0.0235 H   0  0
    3.8667   -3.8946    0.8935 H   0  0
    3.1509   -2.5580    2.7916 H   0  0
    4.9208   -1.3923    1.7810 H   0  0
    1.6129   -0.0104    2.1247 H   0  0
    2.0484   -1.5126    4.6083 H   0  0
  1  2  2  0
  2  3  1  0
  3  4  2  0
  4  5  1  0
  5  6  2  0
  1  6  1  0
  8  9  1  0
  7 10  1  0
  5  8  1  0
  7  6  1  0
 10 13  1  0
 11 12  2  0
 12 13  1  0
 13 14  2  0
 14 15  1  0
 11 16  1  0
 15 16  2  0
 16 17  1  0
  9 10  2  0
  2 18  1  0
  4 19  1  0
  8 20  2  0
  9 21  1  0
 22 23  1  0
 24 23  1  0
 24 25  1  0
 25 26  1  0
 26 27  1  0
 27 28  1  0
 27 29  1  0
 29 30  1  0
 29 31  1  0
 24 31  1  0
 31 32  1  0
 26 21  1  0
 33 34  1  0
 34 35  1  0
 35 36  1  0
 36 37  1  0
 37 38  1  0
 33 38  1  0
 38 39  1  0
 37 40  1  0
 33 28  1  0
 36 41  1  0
 35 42  1  0
 43 44  1  0
 45 44  1  0
 45 46  1  0
 46 47  1  0
 47 48  1  0
 48 49  1  0
 48 50  1  0
 50 51  1  0
 50 52  1  0
 45 52  1  0
 52 53  1  0
 47 40  1  0
  1 54  1  0
  3 55  1  0
 11 56  1  0
 12 57  1  0
 14 58  1  0
 15 59  1  0
 17 60  1  0
 18 61  1  0
 19 62  1  0
 22 63  1  0
 23 64  1  0
 23 65  1  0
 24 66  1  0
 26 67  1  0
 27 68  1  0
 29 69  1  0
 30 70  1  0
 31 71  1  0
 32 72  1  0
 33 73  1  0
 35 74  1  0
 36 75  1  0
 37 76  1  0
 38 77  1  0
 39 78  1  0
 41 79  1  0
 42 80  1  0
 42 81  1  0
 42 82  1  0
 43 83  1  0
 44 84  1  0
 44 85  1  0
 45 86  1  0
 47 87  1  0
 48 88  1  0
 49 89  1  0
 50 90  1  0
 51 91  1  0
 52 92  1  0
 53 93  1  0
M  END
> <Name>
GFS2016_MR07

$$$$
GFS2016_MR08
  SciTegic12132405553D

 94 99  0  0  0  0            999 V2000
   -5.5070    7.4371    1.2000 C   0  0
   -6.2333    8.2693    1.9440 C   0  0
   -5.9659    8.3938    3.3760 C   0  0
   -4.9892    7.6826    3.9345 C   0  0
   -4.1841    6.7770    3.1108 C   0  0
   -4.4347    6.6524    1.8125 C   0  0
   -3.6936    5.8032    1.0383 O   0  0
   -3.1138    6.0075    3.6937 C   0  0
   -2.3365    5.1236    2.8474 C   0  0
   -2.6382    5.0655    1.5284 C   0  0
   -1.8683    3.1292   -1.6218 C   0  0
   -2.5404    3.8098   -0.6942 C   0  0
   -1.8580    4.2868    0.5101 C   0  0
   -0.5470    4.0597    0.6540 C   0  0
    0.1905    3.3465   -0.3849 C   0  0
   -0.4388    2.8910   -1.4599 C   0  0
    0.2732    2.2086   -2.4374 O   0  0
   -7.2455    9.0207    1.3590 O   0  0
   -4.7399    7.8015    5.2960 O   0  0
   -2.8738    6.0763    4.9035 O   0  0
   -1.3505    4.3223    3.4880 O   0  0
   -5.8553    2.8943    4.6571 O   0  0
   -5.0005    1.9405    5.2905 C   0  0
   -3.7302    1.7603    4.4505 C   0  0  1  0  0  0
   -3.0678    3.0126    4.3426 O   0  0
   -1.8617    2.9474    3.5554 C   0  0  2  0  0  0
   -0.8409    1.9902    4.2014 C   0  0  2  0  0  0
    0.3845    2.0606    3.3589 O   0  0
   -1.5634    0.5617    4.2973 C   0  0  1  0  0  0
   -0.8062   -0.4716    4.9578 O   0  0
   -2.8256    0.7414    5.1320 C   0  0  2  0  0  0
   -3.5122   -0.5050    5.2278 O   0  0
    1.5305    1.3164    3.8324 C   0  0  2  0  0  0
    1.9231    1.7708    5.1449 O   0  0
    2.3405    3.1615    5.1438 C   0  0  2  0  0  0
    3.5626    3.3440    4.2345 C   0  0  1  0  0  0
    3.1645    2.9142    2.7921 C   0  0  2  0  0  0
    2.7110    1.4608    2.8617 C   0  0  1  0  0  0
    3.8016    0.6639    3.3255 O   0  0
    4.2640    2.9456    1.8265 O   0  0
    3.9604    4.7154    4.2849 O   0  0
    2.7112    3.5646    6.5711 C   0  0
    2.3407    7.5117    1.2406 O   0  0
    3.3641    7.3812    0.2542 C   0  0
    4.4469    6.4299    0.7697 C   0  0  1  0  0  0
    3.8612    5.1358    1.0426 O   0  0
    4.8536    4.2217    1.5504 C   0  0  2  0  0  0
    5.9594    4.0100    0.5088 C   0  0  2  0  0  0
    6.9312    3.1036    1.0220 O   0  0
    6.6136    5.3529    0.2201 C   0  0  1  0  0  0
    7.6456    5.1948   -0.7525 O   0  0
    5.5443    6.2994   -0.3016 C   0  0  2  0  0  0
    6.1248    7.5756   -0.5640 O   0  0
    1.5501    3.1620   -0.2643 O   0  0
   -5.7020    7.3473    0.1617 H   0  0
   -6.5496    9.0508    3.9694 H   0  0
   -2.3686    2.7718   -2.4846 H   0  0
   -3.5775    3.9887   -0.8180 H   0  0
   -0.0315    4.4197    1.5090 H   0  0
   -0.3385    1.9444   -3.1655 H   0  0
   -7.2883    8.8196    0.3914 H   0  0
   -5.3747    8.4482    5.6916 H   0  0
   -5.3825    3.7611    4.5785 H   0  0
   -4.7259    2.3009    6.2923 H   0  0
   -5.5231    0.9770    5.3777 H   0  0
   -3.9975    1.4007    3.4476 H   0  0
   -2.0986    2.5814    2.5524 H   0  0
   -0.6025    2.3449    5.2130 H   0  0
   -1.8465    0.2177    3.2934 H   0  0
   -0.0465   -0.7428    4.4390 H   0  0
   -2.5568    1.0907    6.1393 H   0  0
   -3.7499   -0.8185    4.3210 H   0  0
    1.2798    0.2761    3.8711 H   0  0
    1.5170    3.7959    4.7844 H   0  0
    4.3806    2.7071    4.5968 H   0  0
    2.3370    3.5437    2.4398 H   0  0
    2.4048    1.1155    1.8633 H   0  0
    4.5618    0.7474    2.6982 H   0  0
    3.2146    5.2842    3.9656 H   0  0
    3.0270    4.6165    6.5837 H   0  0
    3.5343    2.9285    6.9250 H   0  0
    1.8371    3.4341    7.2247 H   0  0
    1.9428    6.6235    1.4216 H   0  0
    2.9338    6.9754   -0.6718 H   0  0
    3.8101    8.3664    0.0515 H   0  0
    4.8827    6.8336    1.6946 H   0  0
    5.3001    4.6357    2.4595 H   0  0
    5.5242    3.6004   -0.4139 H   0  0
    7.3158    3.4754    1.8531 H   0  0
    7.0409    5.7582    1.1476 H   0  0
    8.3311    4.5715   -0.4060 H   0  0
    5.1093    5.8948   -1.2260 H   0  0
    6.5188    7.9331    0.2706 H   0  0
    1.8499    3.5928    0.5534 H   0  0
  1  2  2  0
  2  3  1  0
  3  4  2  0
  4  5  1  0
  5  6  2  0
  1  6  1  0
  8  9  1  0
  7 10  1  0
  5  8  1  0
  7  6  1  0
 10 13  1  0
 11 12  2  0
 12 13  1  0
 13 14  2  0
 14 15  1  0
 11 16  1  0
 15 16  2  0
 16 17  1  0
  9 10  2  0
  2 18  1  0
  4 19  1  0
  8 20  2  0
  9 21  1  0
 22 23  1  0
 24 23  1  0
 24 25  1  0
 26 25  1  0
 27 26  1  0
 27 28  1  0
 27 29  1  0
 29 30  1  0
 29 31  1  0
 31 24  1  0
 31 32  1  0
 26 21  1  0
 33 34  1  0
 35 34  1  0
 36 35  1  0
 36 37  1  0
 37 38  1  0
 38 33  1  0
 38 39  1  0
 37 40  1  0
 33 28  1  0
 36 41  1  0
 35 42  1  0
 43 44  1  0
 45 44  1  0
 45 46  1  0
 47 46  1  0
 48 47  1  0
 48 49  1  0
 48 50  1  0
 50 51  1  0
 50 52  1  0
 52 45  1  0
 52 53  1  0
 47 40  1  0
 15 54  1  0
  1 55  1  0
  3 56  1  0
 11 57  1  0
 12 58  1  0
 14 59  1  0
 17 60  1  0
 18 61  1  0
 19 62  1  0
 22 63  1  0
 23 64  1  0
 23 65  1  0
 24 66  1  0
 26 67  1  0
 27 68  1  0
 29 69  1  0
 30 70  1  0
 31 71  1  0
 32 72  1  0
 33 73  1  0
 35 74  1  0
 36 75  1  0
 37 76  1  0
 38 77  1  0
 39 78  1  0
 41 79  1  0
 42 80  1  0
 42 81  1  0
 42 82  1  0
 43 83  1  0
 44 84  1  0
 44 85  1  0
 45 86  1  0
 47 87  1  0
 48 88  1  0
 49 89  1  0
 50 90  1  0
 51 91  1  0
 52 92  1  0
 53 93  1  0
 54 94  1  0
M  END
> <Name>
GFS2016_MR08

> <Clean Energy>
25.133

$$$$
GFS2016_P1a
  SciTegic12132405553D

 84 88  0  0  0  0            999 V2000
   -3.5381   -0.5008    4.3372 C   0  0
   -3.6136   -2.0337    4.5486 C   0  0  1  0  0  0
   -2.2262   -2.7332    4.3470 C   0  0  1  0  0  0
   -1.0510   -2.1031    5.2298 C   0  0  2  0  0  0
   -1.0082   -0.5345    4.9393 C   0  0  1  0  0  0
   -2.4082    0.1411    5.1811 C   0  0
    0.3266   -2.7111    4.7650 C   0  0
    1.5962   -1.9622    5.2525 C   0  0
    1.5750   -0.4357    4.8983 C   0  0  1  0  0  0
    0.2665    0.2734    5.4904 C   0  0  1  0  0  0
    2.9664    0.3529    5.0543 C   0  0  2  0  0  0
    2.8348    1.7835    4.3146 C   0  0  1  0  0  0
    1.5842    2.5293    4.9289 C   0  0
    0.2350    1.7471    4.9248 C   0  0
    4.1786   -0.4135    4.3827 C   0  0
    5.5298    0.3662    4.3368 C   0  0
    5.5187    1.9348    4.0888 C   0  0  2  0  0  0
    4.1788    2.6302    4.5767 C   0  0  1  0  0  0
    5.7573    2.2550    2.5693 C   0  0
    5.7180    3.7691    2.1879 C   0  0
    4.6684    4.7408    2.8867 C   0  0  1  0  0  0
    4.2019    4.1891    4.2937 C   0  0
    5.4056    6.1198    3.1150 C   0  0
    3.4011    5.1242    2.0124 C   0  0
    6.7630    2.5005    4.8829 C   0  0
    2.5413    1.6493    2.7527 C   0  0
    0.2208    0.3870    7.0675 C   0  0
   -1.2607   -2.4717    6.7460 C   0  0
   -2.4074   -4.2848    4.4113 C   0  0
   -4.1916   -2.3310    5.8193 O   0  0
    3.3572    0.4178    6.5934 C   0  0
    3.6818    5.2778    0.6239 O   0  0
   -3.2636   -0.3494    3.2933 H   0  0
   -4.4741   -0.0932    4.7193 H   0  0
   -4.3312   -2.4685    3.8529 H   0  0
   -1.8790   -2.5371    3.3325 H   0  0
   -0.8416   -0.4500    3.8655 H   0  0
   -2.6676   -0.0545    6.2215 H   0  0
   -2.3190    1.1675    4.8252 H   0  0
    0.3842   -3.6971    5.2259 H   0  0
    0.3398   -2.6153    3.6793 H   0  0
    1.5789   -2.0228    6.3407 H   0  0
    2.4286   -2.3927    4.6958 H   0  0
    1.4725   -0.4074    3.8135 H   0  0
    1.8211    2.6766    5.9825 H   0  0
    1.4123    3.3906    4.2833 H   0  0
   -0.4147    2.3037    5.6002 H   0  0
   -0.0296    1.6486    3.8720 H   0  0
    4.3701   -1.2780    5.0183 H   0  0
    3.8965   -0.5559    3.3395 H   0  0
    5.9444    0.2421    5.3372 H   0  0
    6.0507   -0.0516    3.4753 H   0  0
    4.1585    2.6124    5.6664 H   0  0
    6.7761    1.9302    2.3578 H   0  0
    4.9197    1.8017    2.0392 H   0  0
    6.6943    4.1444    2.4946 H   0  0
    5.4407    3.7691    1.1338 H   0  0
    4.9381    4.5815    4.9952 H   0  0
    3.1585    4.4946    4.3711 H   0  0
    5.8052    6.1547    4.1285 H   0  0
    6.2216    6.2184    2.3991 H   0  0
    4.6985    6.9373    2.9749 H   0  0
    2.7071    4.2843    2.0445 H   0  0
    3.0708    6.1162    2.3206 H   0  0
    6.8062    2.0372    5.8686 H   0  0
    7.6775    2.2741    4.3346 H   0  0
    6.6634    3.5804    4.9930 H   0  0
    2.5261    0.5954    2.4751 H   0  0
    1.5750    2.0992    2.5246 H   0  0
    3.3223    2.1617    2.1909 H   0  0
    0.1702   -0.6112    7.5023 H   0  0
    1.1192    0.8925    7.4216 H   0  0
   -0.6586    0.9580    7.3653 H   0  0
   -1.3451   -3.5536    6.8486 H   0  0
   -0.4096   -2.1169    7.3273 H   0  0
   -2.1726   -1.9998    7.1119 H   0  0
   -2.1864   -4.6349    5.4196 H   0  0
   -3.4352   -4.5415    4.1547 H   0  0
   -1.7270   -4.7596    3.7045 H   0  0
   -4.3690   -3.2726    5.8777 H   0  0
    3.5120   -0.5926    6.9719 H   0  0
    4.2746    0.9944    6.7113 H   0  0
    2.5530    0.8960    7.1526 H   0  0
    3.6861    4.4159    0.2011 H   0  0
  2  1  1  0
  2  3  1  0
  3  4  1  0
  4  5  1  0
  5  6  1  0
  6  1  1  0
  4  7  1  0
  7  8  1  0
  9  8  1  0
 10  9  1  0
  5 10  1  0
  9 11  1  0
 11 12  1  0
 12 13  1  0
 13 14  1  0
 10 14  1  0
 11 15  1  0
 15 16  1  0
 17 16  1  0
 18 17  1  0
 12 18  1  0
 17 19  1  0
 19 20  1  0
 21 20  1  0
 21 22  1  0
 18 22  1  0
 21 23  1  0
 21 24  1  0
 17 25  1  0
 12 26  1  0
 10 27  1  0
  4 28  1  0
  3 29  1  0
 11 31  1  0
 24 32  1  0
  2 30  1  0
  1 33  1  0
  1 34  1  0
  2 35  1  0
  3 36  1  0
  5 37  1  0
  6 38  1  0
  6 39  1  0
  7 40  1  0
  7 41  1  0
  8 42  1  0
  8 43  1  0
  9 44  1  0
 13 45  1  0
 13 46  1  0
 14 47  1  0
 14 48  1  0
 15 49  1  0
 15 50  1  0
 16 51  1  0
 16 52  1  0
 18 53  1  0
 19 54  1  0
 19 55  1  0
 20 56  1  0
 20 57  1  0
 22 58  1  0
 22 59  1  0
 23 60  1  0
 23 61  1  0
 23 62  1  0
 24 63  1  0
 24 64  1  0
 25 65  1  0
 25 66  1  0
 25 67  1  0
 26 68  1  0
 26 69  1  0
 26 70  1  0
 27 71  1  0
 27 72  1  0
 27 73  1  0
 28 74  1  0
 28 75  1  0
 28 76  1  0
 29 77  1  0
 29 78  1  0
 29 79  1  0
 30 80  1  0
 31 81  1  0
 31 82  1  0
 31 83  1  0
 32 84  1  0
M  END
> <Name>
GFS2016_P1a

> <Clean Energy>
200.101

$$$$
GFS2016_P1b
  SciTegic12132405553D

 84 88  0  0  0  0            999 V2000
   -3.0408   -0.5012    1.8558 C   0  0
   -3.0634   -2.0469    1.7540 C   0  0  2  0  0  0
   -1.6673   -2.6897    2.0633 C   0  0  1  0  0  0
   -1.0799   -2.2280    3.4788 C   0  0  2  0  0  0
   -1.0234   -0.6290    3.4938 C   0  0  1  0  0  0
   -2.4384   -0.0116    3.1974 C   0  0
    0.3908   -2.7678    3.6349 C   0  0
    1.2420   -2.1045    4.7509 C   0  0
    1.2998   -0.5397    4.6162 C   0  0  1  0  0  0
   -0.1818    0.0682    4.6766 C   0  0  1  0  0  0
    2.4547    0.2333    5.4300 C   0  0  2  0  0  0
    2.5173    1.7955    5.0197 C   0  0  1  0  0  0
    1.0563    2.3680    5.2196 C   0  0
   -0.0642    1.6246    4.4244 C   0  0
    3.8837   -0.3472    5.1043 C   0  0
    5.0602    0.3071    5.8803 C   0  0
    5.0380    1.8817    6.1112 C   0  0  2  0  0  0
    3.6089    2.5815    5.9084 C   0  0  1  0  0  0
    6.1265    2.5112    5.1630 C   0  0
    6.2873    4.0461    5.2789 C   0  0
    4.9707    4.8387    4.9933 C   0  0  1  0  0  0
    3.7413    4.1643    5.7411 C   0  0
    5.1605    6.3011    5.5498 C   0  0
    4.7447    4.9720    3.4428 C   0  0
    5.5230    2.1310    7.5975 C   0  0
    2.8648    2.0587    3.5016 C   0  0
   -0.9290   -0.1014    6.0631 C   0  0
   -1.9495   -2.8549    4.6340 C   0  0
   -1.7253   -4.2326    1.8094 C   0  0
   -3.5122   -2.3620    0.4338 O   0  0
    2.2165   -0.0335    6.9720 C   0  0
    5.7203    5.7811    2.7870 O   0  0
   -2.3643   -0.1550    1.0744 H   0  0
   -4.0828   -0.1813    1.8556 H   0  0
   -3.7908   -2.4879    2.4356 H   0  0
   -0.9362   -2.3199    1.3444 H   0  0
   -0.4061   -0.3503    2.6397 H   0  0
   -3.1044   -0.3853    3.9752 H   0  0
   -2.2858    1.0612    3.0798 H   0  0
    0.2912   -3.8108    3.9357 H   0  0
    0.8974   -2.5154    2.7034 H   0  0
    0.7223   -2.3128    5.6861 H   0  0
    2.2606   -2.4629    4.6019 H   0  0
    1.6825   -0.3567    3.6121 H   0  0
    0.8167    2.2087    6.2710 H   0  0
    1.0756    3.3788    4.8122 H   0  0
   -0.9996    2.0513    4.7863 H   0  0
    0.2138    1.7310    3.3758 H   0  0
    3.8646   -1.3855    5.4355 H   0  0
    4.0671   -0.1130    4.0557 H   0  0
    5.0013   -0.1307    6.8768 H   0  0
    5.9323    0.1204    5.2537 H   0  0
    3.0858    2.4733    6.8585 H   0  0
    7.0813    2.0978    5.4880 H   0  0
    5.7747    2.3361    4.1463 H   0  0
    6.5346    4.2384    6.3230 H   0  0
    6.9865    4.3294    4.4922 H   0  0
    3.8236    4.5331    6.7635 H   0  0
    2.8816    4.4393    5.1301 H   0  0
    5.1576    6.2785    6.6395 H   0  0
    6.1102    6.7036    5.1973 H   0  0
    4.3450    6.9327    5.1973 H   0  0
    4.8827    3.9845    3.0023 H   0  0
    3.8098    5.5112    3.2899 H   0  0
    5.6844    1.1733    8.0924 H   0  0
    6.4552    2.6956    7.5857 H   0  0
    4.7631    2.6956    8.1378 H   0  0
    2.9829    1.1060    2.9854 H   0  0
    2.0580    2.6259    3.0373 H   0  0
    3.7931    2.6259    3.4344 H   0  0
   -1.0482   -1.1621    6.2843 H   0  0
   -0.3430    0.3706    6.8518 H   0  0
   -1.9100    0.3706    6.0073 H   0  0
   -1.9040   -3.9423    4.5737 H   0  0
   -1.5618   -2.5281    5.5989 H   0  0
   -2.9839   -2.5281    4.5284 H   0  0
   -1.7451   -4.7575    2.7644 H   0  0
   -2.6250   -4.4741    1.2434 H   0  0
   -0.8463   -4.5410    1.2434 H   0  0
   -3.5485   -3.3154    0.3271 H   0  0
    2.1883   -1.1078    7.1547 H   0  0
    3.0282    0.4117    7.5474 H   0  0
    1.2691    0.4117    7.2757 H   0  0
    6.2592    6.2280    3.4438 H   0  0
  2  1  1  0
  2  3  1  0
  3  4  1  0
  4  5  1  0
  5  6  1  0
  6  1  1  0
  4  7  1  0
  7  8  1  0
  9  8  1  0
 10  9  1  0
  5 10  1  0
  9 11  1  0
 11 12  1  0
 12 13  1  0
 13 14  1  0
 10 14  1  0
 11 15  1  0
 15 16  1  0
 17 16  1  0
 18 17  1  0
 12 18  1  0
 17 19  1  0
 19 20  1  0
 21 20  1  0
 21 22  1  0
 18 22  1  0
 21 23  1  0
 21 24  1  0
 17 25  1  0
 12 26  1  0
 10 27  1  0
  4 28  1  0
  3 29  1  0
 11 31  1  0
 24 32  1  0
  2 30  1  0
  1 33  1  0
  1 34  1  0
  2 35  1  0
  3 36  1  0
  5 37  1  0
  6 38  1  0
  6 39  1  0
  7 40  1  0
  7 41  1  0
  8 42  1  0
  8 43  1  0
  9 44  1  0
 13 45  1  0
 13 46  1  0
 14 47  1  0
 14 48  1  0
 15 49  1  0
 15 50  1  0
 16 51  1  0
 16 52  1  0
 18 53  1  0
 19 54  1  0
 19 55  1  0
 20 56  1  0
 20 57  1  0
 22 58  1  0
 22 59  1  0
 23 60  1  0
 23 61  1  0
 23 62  1  0
 24 63  1  0
 24 64  1  0
 25 65  1  0
 25 66  1  0
 25 67  1  0
 26 68  1  0
 26 69  1  0
 26 70  1  0
 27 71  1  0
 27 72  1  0
 27 73  1  0
 28 74  1  0
 28 75  1  0
 28 76  1  0
 29 77  1  0
 29 78  1  0
 29 79  1  0
 30 80  1  0
 31 81  1  0
 31 82  1  0
 31 83  1  0
 32 84  1  0
M  END
> <Name>
GFS2016_P1b

> <Clean Energy>
200.101

$$$$
GFS2016_P2a
  SciTegic12132405553D

 82 86  0  0  0  0            999 V2000
   -8.5286    1.1251   -0.6693 C   0  0
   -8.7655   -0.3682   -0.3364 C   0  0  1  0  0  0
   -7.4621   -1.2249   -0.4817 C   0  0  1  0  0  0
   -6.1999   -0.6356    0.3085 C   0  0  2  0  0  0
   -6.0003    0.8808   -0.1615 C   0  0  1  0  0  0
   -7.3065    1.7237    0.0719 C   0  0
   -4.9098   -1.4523   -0.0896 C   0  0
   -3.5551   -0.7858    0.2836 C   0  0
   -3.4400    0.6561   -0.3267 C   0  0  1  0  0  0
   -4.6104    1.6008    0.2142 C   0  0  1  0  0  0
   -1.9716    1.2898   -0.4475 C   0  0  2  0  0  0
   -2.0148    2.6371   -1.3404 C   0  0  1  0  0  0
   -3.0921    3.5994   -0.7071 C   0  0
   -4.5140    2.9866   -0.5422 C   0  0
   -0.9798    0.2958   -1.1737 C   0  0
    0.2842    0.8672   -1.7152 C   0  0
    0.6324    2.3319   -1.8284 C   0  0  2  0  0  0
   -0.5474    3.2897   -1.3463 C   0  0  1  0  0  0
    1.0342    2.6372   -3.3244 C   0  0
    1.3954    4.1177   -3.6101 C   0  0
    0.2666    5.1355   -3.2344 C   0  0
   -0.3381    4.7892   -1.8173 C   0  0
   -0.8223    5.2015   -4.3609 C   0  0
    0.9088    6.5712   -3.1586 C   0  0
    1.9141    2.5384   -0.9329 C   0  0
    1.1158    0.0176   -2.1239 O   0  0
   -2.4856    2.3980   -2.8314 C   0  0
   -4.5290    1.9315    1.7578 C   0  0
   -6.4056   -0.8077    1.8601 C   0  0
   -7.7969   -2.7348   -0.2596 C   0  0
   -9.3590   -0.4967    0.9540 O   0  0
   -1.3931    1.4699    1.0202 C   0  0
   -8.2844    1.1614   -1.7309 H   0  0
   -9.4008    1.6592   -0.2921 H   0  0
   -9.5318   -0.7793   -0.9936 H   0  0
   -7.1257   -1.1678   -1.5169 H   0  0
   -5.8839    0.8344   -1.2443 H   0  0
   -7.5357    1.6502    1.1350 H   0  0
   -7.1299    2.6991   -0.3814 H   0  0
   -4.9477   -2.3703    0.4968 H   0  0
   -4.9141   -1.5005   -1.1785 H   0  0
   -3.5638   -0.6647    1.3668 H   0  0
   -2.7795   -1.3867   -0.1913 H   0  0
   -3.6289    0.5153   -1.3909 H   0  0
   -2.7480    3.8036    0.3068 H   0  0
   -3.2126    4.4178   -1.4169 H   0  0
   -5.0542    3.6978    0.0827 H   0  0
   -4.8524    2.7877   -1.5591 H   0  0
   -0.6425   -0.4095   -0.4141 H   0  0
   -1.5026   -0.0657   -2.0592 H   0  0
   -0.4580    3.4163   -0.2674 H   0  0
    1.9507    2.0770   -3.5095 H   0  0
    0.1439    2.4384   -3.9210 H   0  0
    2.2355    4.3461   -2.9542 H   0  0
    1.5137    4.1869   -4.6915 H   0  0
    0.3908    5.1913   -1.1138 H   0  0
   -1.3465    5.2016   -1.8526 H   0  0
   -1.2893    4.2229   -4.4726 H   0  0
   -1.5801    5.9370   -4.0911 H   0  0
   -0.3544    5.4903   -5.3020 H   0  0
    0.9878    6.8793   -2.1160 H   0  0
    1.9020    6.5491   -3.6072 H   0  0
    0.2812    7.2790   -3.7001 H   0  0
    1.6148    2.6527    0.1090 H   0  0
    2.5685    1.6721   -1.0299 H   0  0
    2.4448    3.4330   -1.2587 H   0  0
   -2.7995    1.3611   -2.9514 H   0  0
   -3.3217    3.0594   -3.0588 H   0  0
   -1.6602    2.6088   -3.5113 H   0  0
   -4.7403    1.0308    2.3340 H   0  0
   -3.5291    2.2916    1.9999 H   0  0
   -5.2615    2.7004    2.0037 H   0  0
   -6.6592   -1.8447    2.0801 H   0  0
   -5.4859   -0.5403    2.3804 H   0  0
   -7.2142   -0.1573    2.1937 H   0  0
   -7.8699   -2.9375    0.8089 H   0  0
   -8.7464   -2.9709   -0.7399 H   0  0
   -7.0078   -3.3495   -0.6929 H   0  0
   -9.5912   -1.4151    1.1095 H   0  0
   -1.4668    0.5248    1.5582 H   0  0
   -0.3484    1.7756    0.9640 H   0  0
   -1.9672    2.2329    1.5459 H   0  0
  1  2  1  0
  3  2  1  0
  4  3  1  0
  4  5  1  0
  5  6  1  0
  6  1  1  0
  4  7  1  0
  7  8  1  0
  9  8  1  0
 10  9  1  0
  5 10  1  0
  9 11  1  0
 11 12  1  0
 12 13  1  0
 13 14  1  0
 10 14  1  0
 11 15  1  0
 15 16  1  0
 17 16  1  0
 18 17  1  0
 12 18  1  0
 17 19  1  0
 19 20  1  0
 20 21  1  0
 21 22  1  0
 18 22  1  0
 21 23  1  0
 21 24  1  0
 17 25  1  0
 16 26  2  0
 12 27  1  0
 10 28  1  0
  4 29  1  0
  3 30  1  0
 11 32  1  0
  2 31  1  0
  1 33  1  0
  1 34  1  0
  2 35  1  0
  3 36  1  0
  5 37  1  0
  6 38  1  0
  6 39  1  0
  7 40  1  0
  7 41  1  0
  8 42  1  0
  8 43  1  0
  9 44  1  0
 13 45  1  0
 13 46  1  0
 14 47  1  0
 14 48  1  0
 15 49  1  0
 15 50  1  0
 18 51  1  0
 19 52  1  0
 19 53  1  0
 20 54  1  0
 20 55  1  0
 22 56  1  0
 22 57  1  0
 23 58  1  0
 23 59  1  0
 23 60  1  0
 24 61  1  0
 24 62  1  0
 24 63  1  0
 25 64  1  0
 25 65  1  0
 25 66  1  0
 27 67  1  0
 27 68  1  0
 27 69  1  0
 28 70  1  0
 28 71  1  0
 28 72  1  0
 29 73  1  0
 29 74  1  0
 29 75  1  0
 30 76  1  0
 30 77  1  0
 30 78  1  0
 31 79  1  0
 32 80  1  0
 32 81  1  0
 32 82  1  0
M  END
> <Name>
GFS2016_P2a

> <Clean Energy>
161.115

$$$$
GFS2016_P2b
  SciTegic12132405553D

 82 86  0  0  0  0            999 V2000
   -7.3669    0.4042   -4.3252 C   0  0
   -7.2958   -1.1267   -4.5595 C   0  0  2  0  0  0
   -5.9357   -1.7549   -4.0875 C   0  0  1  0  0  0
   -5.5723   -1.3880   -2.5708 C   0  0  2  0  0  0
   -5.5978    0.2043   -2.4357 C   0  0  1  0  0  0
   -6.9946    0.7810   -2.8673 C   0  0
   -4.1157   -1.8945   -2.2397 C   0  0
   -3.4674   -1.2849   -0.9644 C   0  0
   -3.4522    0.2841   -1.0165 C   0  0  1  0  0  0
   -4.9383    0.8603   -1.1215 C   0  0  1  0  0  0
   -2.4340    1.0534   -0.0431 C   0  0  2  0  0  0
   -2.3658    2.6251   -0.4114 C   0  0  1  0  0  0
   -3.8401    3.1875   -0.3868 C   0  0
   -4.8467    2.4288   -1.3011 C   0  0
   -0.9667    0.4899   -0.2017 C   0  0
    0.1485    1.3321    0.3147 C   0  0
    0.0480    2.7556    0.8081 C   0  0  2  0  0  0
   -1.4165    3.3708    0.6497 C   0  0  1  0  0  0
    1.1167    3.6237    0.0326 C   0  0
    1.1255    5.1320    0.3922 C   0  0
   -0.2544    5.8326    0.1653 C   0  0
   -1.4305    4.9547    0.7534 C   0  0
   -0.4465    6.1859   -1.3520 C   0  0
   -0.2456    7.2109    0.9180 C   0  0
    0.4709    2.7085    2.3265 C   0  0
    1.2756    0.7740    0.3063 O   0  0
   -1.8252    2.9132   -1.8700 C   0  0
   -5.8286    0.6138    0.1597 C   0  0
   -6.5705   -2.1288   -1.6035 C   0  0
   -5.8886   -3.2741   -4.4528 C   0  0
   -7.5167   -1.3305   -5.9575 O   0  0
   -2.8508    0.7424    1.4549 C   0  0
   -6.5899    0.8853   -5.0038 H   0  0
   -8.4486    0.7181   -4.4810 H   0  0
   -8.1291   -1.6032   -4.0363 H   0  0
   -5.1663   -1.2975   -4.7208 H   0  0
   -4.9361    0.5527   -3.2392 H   0  0
   -7.7858    0.4357   -2.2023 H   0  0
   -6.9993    1.8698   -2.8260 H   0  0
   -3.4534   -1.6692   -3.0809 H   0  0
   -4.1036   -2.9814   -2.1223 H   0  0
   -2.4515   -1.6790   -0.9139 H   0  0
   -3.9813   -1.6632   -0.0836 H   0  0
   -3.0082    0.4430   -1.9967 H   0  0
   -3.8604    4.2209   -0.7370 H   0  0
   -4.2200    3.2234    0.6342 H   0  0
   -5.8256    2.8855   -1.1242 H   0  0
   -4.5953    2.6723   -2.3351 H   0  0
   -0.7568    0.2990   -1.2573 H   0  0
   -0.8913   -0.4784    0.3018 H   0  0
   -1.9264    3.1252    1.5824 H   0  0
    0.9843    3.5374   -1.0427 H   0  0
    2.1227    3.2426    0.2283 H   0  0
    1.8937    5.6242   -0.2136 H   0  0
    1.4433    5.2360    1.4330 H   0  0
   -1.4589    5.1709    1.8290 H   0  0
   -2.3687    5.3595    0.3843 H   0  0
   -0.2245    5.3416   -1.9970 H   0  0
   -1.4688    6.5211   -1.5418 H   0  0
    0.2278    6.9904   -1.6588 H   0  0
   -1.1990    7.7269    0.7794 H   0  0
    0.5535    7.8595    0.5503 H   0  0
   -0.0931    7.0766    1.9917 H   0  0
    0.3061    3.6671    2.8196 H   0  0
   -0.1013    1.9645    2.8815 H   0  0
    1.5291    2.4528    2.4367 H   0  0
   -1.9527    3.9605   -2.1227 H   0  0
   -2.3487    2.3703   -2.6492 H   0  0
   -0.7806    2.6527   -1.9890 H   0  0
   -5.7610    1.4245    0.8833 H   0  0
   -5.5580   -0.2872    0.6986 H   0  0
   -6.8840    0.5421   -0.0935 H   0  0
   -6.3334   -1.9648   -0.5592 H   0  0
   -7.6018   -1.8201   -1.7577 H   0  0
   -6.5289   -3.2082   -1.7475 H   0  0
   -6.7140   -3.8204   -3.9939 H   0  0
   -5.9583   -3.4088   -5.5339 H   0  0
   -4.9498   -3.7310   -4.1411 H   0  0
   -7.6309   -2.2975   -6.0662 H   0  0
   -3.6740    1.3591    1.7967 H   0  0
   -3.1355   -0.2981    1.5996 H   0  0
   -2.0348    0.9142    2.1526 H   0  0
  2  1  1  0
  2  3  1  0
  3  4  1  0
  4  5  1  0
  5  6  1  0
  6  1  1  0
  4  7  1  0
  7  8  1  0
  9  8  1  0
 10  9  1  0
  5 10  1  0
  9 11  1  0
 11 12  1  0
 12 13  1  0
 13 14  1  0
 10 14  1  0
 11 15  1  0
 15 16  1  0
 17 16  1  0
 18 17  1  0
 12 18  1  0
 17 19  1  0
 19 20  1  0
 20 21  1  0
 21 22  1  0
 18 22  1  0
 21 23  1  0
 21 24  1  0
 17 25  1  0
 16 26  2  0
 12 27  1  0
 10 28  1  0
  4 29  1  0
  3 30  1  0
 11 32  1  0
  2 31  1  0
  1 33  1  0
  1 34  1  0
  2 35  1  0
  3 36  1  0
  5 37  1  0
  6 38  1  0
  6 39  1  0
  7 40  1  0
  7 41  1  0
  8 42  1  0
  8 43  1  0
  9 44  1  0
 13 45  1  0
 13 46  1  0
 14 47  1  0
 14 48  1  0
 15 49  1  0
 15 50  1  0
 18 51  1  0
 19 52  1  0
 19 53  1  0
 20 54  1  0
 20 55  1  0
 22 56  1  0
 22 57  1  0
 23 58  1  0
 23 59  1  0
 23 60  1  0
 24 61  1  0
 24 62  1  0
 24 63  1  0
 25 64  1  0
 25 65  1  0
 25 66  1  0
 27 67  1  0
 27 68  1  0
 27 69  1  0
 28 70  1  0
 28 71  1  0
 28 72  1  0
 29 73  1  0
 29 74  1  0
 29 75  1  0
 30 76  1  0
 30 77  1  0
 30 78  1  0
 31 79  1  0
 32 80  1  0
 32 81  1  0
 32 82  1  0
M  END
> <Name>
GFS2016_P2b

> <Clean Energy>
161.115

$$$$
GFS2016_P3a
  SciTegic12132405553D

 83 87  0  0  0  0            999 V2000
   -8.4943    0.1357    0.5143 C   0  0
   -8.4272   -1.3599    0.9190 C   0  0  1  0  0  0
   -7.1253   -2.0679    0.4095 C   0  0  1  0  0  0
   -5.7707   -1.3361    0.8460 C   0  0  2  0  0  0
   -5.8550    0.1833    0.3504 C   0  0  1  0  0  0
   -7.1509    0.8904    0.9970 C   0  0
   -4.5556   -2.0052    0.0956 C   0  0
   -3.2152   -1.2189    0.1511 C   0  0
   -3.3480    0.2655   -0.3388 C   0  0  1  0  0  0
   -4.4998    1.0472    0.4525 C   0  0  1  0  0  0
   -1.9792    1.0679   -0.5950 C   0  0  2  0  0  0
   -2.2796    2.4200   -1.4299 C   0  0  1  0  0  0
   -3.3919    3.2264   -0.6511 C   0  0
   -4.6903    2.4317   -0.2911 C   0  0
   -0.9548    0.2167   -1.4369 C   0  0
    0.2295    0.9640   -1.9428 C   0  0
    0.2999    2.4554   -2.1981 C   0  0  2  0  0  0
   -0.9198    3.2578   -1.5759 C   0  0  1  0  0  0
    0.3759    2.6227   -3.7605 C   0  0
   -0.0412    3.9667   -4.4324 C   0  0
   -0.7070    5.1408   -3.5927 C   0  0  1  0  0  0
   -0.9334    4.7640   -2.0641 C   0  0
    0.2961    6.3585   -3.6699 C   0  0
   -2.0735    5.6376   -4.2536 C   0  0
    1.6439    2.9666   -1.5461 C   0  0
    1.1921    0.2409   -2.3011 O   0  0
   -2.8613    2.1615   -2.8774 C   0  0
   -4.1498    1.3697    1.9601 C   0  0
   -5.5348   -1.5235    2.3954 C   0  0
   -7.2256   -3.6013    0.7032 C   0  0
   -8.5857   -1.4895    2.3322 O   0  0
   -1.2267    1.2939    0.7847 C   0  0
   -2.2607    7.0494   -4.3466 O   0  0
   -8.5046    0.1525   -0.5755 H   0  0
   -9.3271    0.5618    1.0739 H   0  0
   -9.2920   -1.8885    0.5180 H   0  0
   -7.0835   -1.9860   -0.6766 H   0  0
   -5.9801    0.1383   -0.7314 H   0  0
   -7.0802    0.7445    2.0748 H   0  0
   -7.1935    1.8988    0.5852 H   0  0
   -4.3605   -2.9388    0.6232 H   0  0
   -4.8326   -2.0225   -0.9584 H   0  0
   -2.9449   -1.1668    1.2058 H   0  0
   -2.5512   -1.7136   -0.5578 H   0  0
   -3.6986    0.1658   -1.3660 H   0  0
   -2.9444    3.4906    0.3070 H   0  0
   -3.7177    4.0100   -1.3351 H   0  0
   -5.2226    3.0688    0.4152 H   0  0
   -5.1435    2.1848   -1.2511 H   0  0
   -0.5363   -0.5272   -0.7590 H   0  0
   -1.4797   -0.1010   -2.3378 H   0  0
   -0.7499    3.4059   -0.5095 H   0  0
    1.4356    2.5240   -3.9957 H   0  0
   -0.3385    1.8969   -4.1491 H   0  0
    0.9023    4.3826   -4.7860 H   0  0
   -0.8086    3.6710   -5.1477 H   0  0
   -0.0876    5.2176   -1.5473 H   0  0
   -1.9474    5.1024   -1.8511 H   0  0
    0.8148    6.4630   -2.7169 H   0  0
    1.0235    6.1804   -4.4619 H   0  0
   -0.2579    7.2725   -3.8842 H   0  0
   -2.0654    5.3238   -5.2974 H   0  0
   -2.8865    5.3270   -3.5973 H   0  0
    1.6627    2.6936   -0.4911 H   0  0
    2.4919    2.5086   -2.0552 H   0  0
    1.7048    4.0507   -1.6420 H   0  0
   -2.9264    1.0883   -3.0564 H   0  0
   -3.8547    2.6036   -2.9540 H   0  0
   -2.2039    2.6145   -3.6194 H   0  0
   -4.0257    0.4378    2.5116 H   0  0
   -3.2242    1.9437    2.0035 H   0  0
   -4.9584    1.9501    2.4046 H   0  0
   -5.5074   -2.5869    2.6327 H   0  0
   -4.5875   -1.0637    2.6769 H   0  0
   -6.3468   -1.0490    2.9465 H   0  0
   -6.8500   -3.8045    1.7061 H   0  0
   -8.2666   -3.9171    0.6342 H   0  0
   -6.6302   -4.1507   -0.0260 H   0  0
   -8.6337   -2.4196    2.5648 H   0  0
   -0.9722    0.3285    1.2222 H   0  0
   -0.3152    1.8661    0.6120 H   0  0
   -1.8761    1.8422    1.4672 H   0  0
   -1.9872    7.4633   -3.5248 H   0  0
  1  2  1  0
  3  2  1  0
  4  3  1  0
  4  5  1  0
  5  6  1  0
  6  1  1  0
  4  7  1  0
  7  8  1  0
  9  8  1  0
 10  9  1  0
  5 10  1  0
  9 11  1  0
 11 12  1  0
 12 13  1  0
 13 14  1  0
 10 14  1  0
 11 15  1  0
 15 16  1  0
 17 16  1  0
 18 17  1  0
 12 18  1  0
 17 19  1  0
 19 20  1  0
 21 20  1  0
 21 22  1  0
 18 22  1  0
 21 23  1  0
 21 24  1  0
 17 25  1  0
 16 26  2  0
 12 27  1  0
 10 28  1  0
  4 29  1  0
  3 30  1  0
 11 32  1  0
 24 33  1  0
  2 31  1  0
  1 34  1  0
  1 35  1  0
  2 36  1  0
  3 37  1  0
  5 38  1  0
  6 39  1  0
  6 40  1  0
  7 41  1  0
  7 42  1  0
  8 43  1  0
  8 44  1  0
  9 45  1  0
 13 46  1  0
 13 47  1  0
 14 48  1  0
 14 49  1  0
 15 50  1  0
 15 51  1  0
 18 52  1  0
 19 53  1  0
 19 54  1  0
 20 55  1  0
 20 56  1  0
 22 57  1  0
 22 58  1  0
 23 59  1  0
 23 60  1  0
 23 61  1  0
 24 62  1  0
 24 63  1  0
 25 64  1  0
 25 65  1  0
 25 66  1  0
 27 67  1  0
 27 68  1  0
 27 69  1  0
 28 70  1  0
 28 71  1  0
 28 72  1  0
 29 73  1  0
 29 74  1  0
 29 75  1  0
 30 76  1  0
 30 77  1  0
 30 78  1  0
 31 79  1  0
 32 80  1  0
 32 81  1  0
 32 82  1  0
 33 83  1  0
M  END
> <Name>
GFS2016_P3a

> <Clean Energy>
162.075

$$$$
GFS2016_P3b
  SciTegic12132405553D

 83 87  0  0  0  0            999 V2000
   -8.6996    0.4009   -0.5064 C   0  0
   -8.7676   -1.1243   -0.2458 C   0  0  2  0  0  0
   -7.4406   -1.8556   -0.6575 C   0  0  1  0  0  0
   -6.1518   -1.2731    0.0954 C   0  0  2  0  0  0
   -6.0680    0.2941   -0.2225 C   0  0  1  0  0  0
   -7.4234    1.0159    0.2645 C   0  0
   -4.8455   -1.9346   -0.4871 C   0  0
   -3.5071   -1.2474   -0.0933 C   0  0
   -3.4774    0.2819   -0.4377 C   0  0  1  0  0  0
   -4.7152    1.0495    0.2254 C   0  0  1  0  0  0
   -2.0460    1.0106   -0.3660 C   0  0  2  0  0  0
   -2.1302    2.4593   -1.0801 C   0  0  1  0  0  0
   -3.3187    3.2526   -0.4082 C   0  0
   -4.6998    2.5168   -0.3673 C   0  0
   -0.9298    0.1883   -1.1188 C   0  0
    0.3599    0.9013   -1.3325 C   0  0
    0.5435    2.4012   -1.4001 C   0  0  2  0  0  0
   -0.7252    3.2108   -0.8970 C   0  0  1  0  0  0
    0.9017    2.7280   -2.8974 C   0  0
    0.6896    4.1683   -3.4565 C   0  0
   -0.0630    5.2806   -2.6056 C   0  0  1  0  0  0
   -0.5754    4.7568   -1.1948 C   0  0
    0.9885    6.4309   -2.3542 C   0  0
   -1.2656    5.9370   -3.4233 C   0  0
    1.7803    2.7477   -0.4844 C   0  0
    1.3375    0.1614   -1.6096 O   0  0
   -2.4614    2.3946   -2.6252 C   0  0
   -4.6291    1.1821    1.7996 C   0  0
   -6.2308   -1.6522    1.6248 C   0  0
   -7.6488   -3.4046   -0.5820 C   0  0
   -9.9053   -1.6354   -0.9480 O   0  0
   -1.5377    1.0396    1.1382 C   0  0
   -1.3744    7.3601   -3.3637 O   0  0
   -8.7039    0.5318   -1.6217 H   0  0
   -9.6932    0.8171   -0.1910 H   0  0
   -8.9713   -1.2861    0.8143 H   0  0
   -7.3084   -1.6512   -1.7267 H   0  0
   -5.9770    0.3043   -1.3560 H   0  0
   -7.6004    0.9398    1.3375 H   0  0
   -7.4025    2.0733    0.0070 H   0  0
   -4.9031   -1.9431   -1.5805 H   0  0
   -4.7688   -2.9787   -0.1724 H   0  0
   -2.7329   -1.7718   -0.6566 H   0  0
   -3.2999   -1.4230    0.9615 H   0  0
   -3.6884    0.2548   -1.5087 H   0  0
   -3.4884    4.1884   -0.9474 H   0  0
   -3.0453    3.5449    0.6070 H   0  0
   -5.3748    3.1571    0.2074 H   0  0
   -5.1074    2.5061   -1.3796 H   0  0
   -1.2924   -0.1535   -2.0902 H   0  0
   -0.7003   -0.7235   -0.5574 H   0  0
   -0.6430    3.2354    0.1914 H   0  0
    0.3647    2.0507   -3.5663 H   0  0
    1.9505    2.4571   -3.0668 H   0  0
    0.1894    4.0404   -4.4192 H   0  0
    1.6861    4.5204   -3.7457 H   0  0
    0.1283    5.1197   -0.4360 H   0  0
   -1.4923    5.2737   -0.9134 H   0  0
    0.5704    7.2174   -1.7220 H   0  0
    1.3003    6.8856   -3.2991 H   0  0
    1.8836    6.0486   -1.8574 H   0  0
   -2.2295    5.5773   -3.0718 H   0  0
   -1.2179    5.7067   -4.4878 H   0  0
    2.0328    3.8064   -0.5333 H   0  0
    1.5784    2.4936    0.5594 H   0  0
    2.6750    2.1981   -0.7841 H   0  0
   -2.3961    3.3756   -3.0747 H   0  0
   -3.4625    2.0324   -2.8398 H   0  0
   -1.7923    1.7516   -3.1804 H   0  0
   -4.1871    2.1227    2.1224 H   0  0
   -4.0341    0.3931    2.2459 H   0  0
   -5.6006    1.1563    2.2822 H   0  0
   -5.3118   -1.4356    2.1557 H   0  0
   -7.0357   -1.1376    2.1435 H   0  0
   -6.3904   -2.7216    1.7602 H   0  0
   -8.0255   -3.7094    0.3965 H   0  0
   -8.3724   -3.7236   -1.3357 H   0  0
   -6.7291   -3.9487   -0.7863 H   0  0
  -10.0576   -2.5293   -0.5734 H   0  0
   -2.0042    1.8222    1.7231 H   0  0
   -1.7040    0.0898    1.6430 H   0  0
   -0.4665    1.2189    1.2205 H   0  0
   -0.6358    7.6921   -3.9191 H   0  0
  2  1  1  0
  2  3  1  0
  3  4  1  0
  4  5  1  0
  5  6  1  0
  6  1  1  0
  4  7  1  0
  7  8  1  0
  9  8  1  0
 10  9  1  0
  5 10  1  0
  9 11  1  0
 11 12  1  0
 12 13  1  0
 13 14  1  0
 10 14  1  0
 11 15  1  0
 15 16  1  0
 17 16  1  0
 18 17  1  0
 12 18  1  0
 17 19  1  0
 19 20  1  0
 21 20  1  0
 21 22  1  0
 18 22  1  0
 21 23  1  0
 21 24  1  0
 17 25  1  0
 16 26  2  0
 12 27  1  0
 10 28  1  0
  4 29  1  0
  3 30  1  0
 11 32  1  0
 24 33  1  0
  2 31  1  0
  1 34  1  0
  1 35  1  0
  2 36  1  0
  3 37  1  0
  5 38  1  0
  6 39  1  0
  6 40  1  0
  7 41  1  0
  7 42  1  0
  8 43  1  0
  8 44  1  0
  9 45  1  0
 13 46  1  0
 13 47  1  0
 14 48  1  0
 14 49  1  0
 15 50  1  0
 15 51  1  0
 18 52  1  0
 19 53  1  0
 19 54  1  0
 20 55  1  0
 20 56  1  0
 22 57  1  0
 22 58  1  0
 23 59  1  0
 23 60  1  0
 23 61  1  0
 24 62  1  0
 24 63  1  0
 25 64  1  0
 25 65  1  0
 25 66  1  0
 27 67  1  0
 27 68  1  0
 27 69  1  0
 28 70  1  0
 28 71  1  0
 28 72  1  0
 29 73  1  0
 29 74  1  0
 29 75  1  0
 30 76  1  0
 30 77  1  0
 30 78  1  0
 31 79  1  0
 32 80  1  0
 32 81  1  0
 32 82  1  0
 33 83  1  0
M  END
> <Name>
GFS2016_P3b

> <Clean Energy>
162.075

$$$$
GFS2016_P4a
  SciTegic12132405553D

 85 89  0  0  0  0            999 V2000
   -1.7199   -7.3692    2.1824 C   0  0
   -1.7682   -8.9104    2.3155 C   0  0  1  0  0  0
   -0.3802   -9.5698    2.0094 C   0  0  1  0  0  0
    0.8288   -8.9613    2.8637 C   0  0  2  0  0  0
    0.8361   -7.3770    2.6539 C   0  0  1  0  0  0
   -0.5642   -6.7432    2.9976 C   0  0
    2.1927   -9.5171    2.3060 C   0  0
    3.4706   -8.7838    2.8000 C   0  0
    3.4263   -7.2374    2.5512 C   0  0  1  0  0  0
    2.1173   -6.5758    3.2007 C   0  0  1  0  0  0
    4.8113   -6.4409    2.7388 C   0  0  2  0  0  0
    4.6588   -4.9822    2.0659 C   0  0  1  0  0  0
    3.4037   -4.2783    2.7247 C   0  0
    2.0621   -5.0769    2.7001 C   0  0
    6.0396   -7.1576    2.0395 C   0  0
    7.3946   -6.3680    1.9887 C   0  0  1  0  0  0
    7.3411   -4.7849    1.7826 C   0  0  2  0  0  0
    6.0014   -4.1401    2.3361 C   0  0  1  0  0  0
    7.5013   -4.4412    0.2562 C   0  0
    7.2368   -2.9684   -0.2061 C   0  0
    6.4023   -1.9643    0.7070 C   0  0  1  0  0  0
    5.9884   -2.5747    2.1124 C   0  0
    7.2975   -0.6907    0.9748 C   0  0
    5.1181   -1.3863   -0.0232 C   0  0
    8.6020   -4.1575    2.4962 C   0  0
    8.1692   -6.7603    3.1300 O   0  0
    4.3476   -5.0495    0.5057 C   0  0
    2.1001   -6.5244    4.7811 C   0  0
    0.7050   -9.4117    4.3675 C   0  0
   -0.5361  -11.1256    2.0091 C   0  0
   -2.2645   -9.2791    3.6028 O   0  0
    5.2029   -6.4391    4.2775 C   0  0
    5.3155   -1.0651   -1.3999 O   0  0
   -1.4991   -7.1618    1.1354 H   0  0
   -2.6419   -6.9970    2.6291 H   0  0
   -2.5182   -9.3198    1.6388 H   0  0
   -0.0861   -9.3170    0.9907 H   0  0
    0.9594   -7.2314    1.5807 H   0  0
   -0.7680   -6.9926    4.0389 H   0  0
   -0.5146   -5.6996    2.6867 H   0  0
    2.2783  -10.5321    2.6938 H   0  0
    2.1632   -9.3454    1.2299 H   0  0
    3.4906   -8.9165    3.8817 H   0  0
    4.2882   -9.1661    2.1888 H   0  0
    3.3068   -7.1497    1.4713 H   0  0
    3.6496   -4.1736    3.7815 H   0  0
    3.2150   -3.3922    2.1187 H   0  0
    1.4134   -4.5585    3.4062 H   0  0
    1.7872   -5.1322    1.6468 H   0  0
    6.2487   -8.0342    2.6526 H   0  0
    5.7465   -7.2791    0.9967 H   0  0
    7.9522   -6.7210    1.1212 H   0  0
    6.0178   -4.2213    3.4229 H   0  0
    8.5549   -4.6157    0.0381 H   0  0
    6.7355   -5.0318   -0.2466 H   0  0
    8.2326   -2.5285   -0.2620 H   0  0
    6.6392   -3.0810   -1.1107 H   0  0
    6.7393   -2.1966    2.8060 H   0  0
    4.9425   -2.2932    2.2348 H   0  0
    7.4032   -0.5403    2.0492 H   0  0
    8.2816   -0.8383    0.5300 H   0  0
    6.8254    0.1853    0.5300 H   0  0
    4.3677   -2.1765   -0.0491 H   0  0
    4.8817   -0.4251    0.4333 H   0  0
    8.4764   -4.2201    3.5771 H   0  0
    9.4966   -4.7065    2.2020 H   0  0
    8.7037   -3.1129    2.2020 H   0  0
    8.2030   -7.7184    3.1798 H   0  0
    4.2851   -6.0916    0.1923 H   0  0
    3.3995   -4.5515    0.3025 H   0  0
    5.1451   -4.5515   -0.0456 H   0  0
    2.0958   -7.5398    5.1776 H   0  0
    2.9862   -5.9991    5.1372 H   0  0
    1.2064   -5.9991    5.1178 H   0  0
    0.7005  -10.5003    4.4215 H   0  0
    1.5513   -9.0233    4.9340 H   0  0
   -0.2226   -9.0233    4.7880 H   0  0
   -0.5724  -11.4873    3.0367 H   0  0
   -1.4579  -11.3982    1.4952 H   0  0
    0.3132  -11.5757    1.4952 H   0  0
   -2.2917  -10.2361    3.6733 H   0  0
    5.2928   -7.4663    4.6307 H   0  0
    6.1549   -5.9248    4.4095 H   0  0
    4.4299   -5.9248    4.8485 H   0  0
    5.3887   -1.8749   -1.9102 H   0  0
  1  2  1  0
  3  2  1  0
  4  3  1  0
  4  5  1  0
  5  6  1  0
  6  1  1  0
  4  7  1  0
  7  8  1  0
  9  8  1  0
 10  9  1  0
  5 10  1  0
  9 11  1  0
 11 12  1  0
 12 13  1  0
 13 14  1  0
 10 14  1  0
 11 15  1  0
 16 15  1  0
 17 16  1  0
 18 17  1  0
 12 18  1  0
 17 19  1  0
 19 20  1  0
 21 20  1  0
 21 22  1  0
 18 22  1  0
 21 23  1  0
 21 24  1  0
 17 25  1  0
 12 27  1  0
 10 28  1  0
  4 29  1  0
  3 30  1  0
 11 32  1  0
 16 26  1  0
 24 33  1  0
  2 31  1  0
  1 34  1  0
  1 35  1  0
  2 36  1  0
  3 37  1  0
  5 38  1  0
  6 39  1  0
  6 40  1  0
  7 41  1  0
  7 42  1  0
  8 43  1  0
  8 44  1  0
  9 45  1  0
 13 46  1  0
 13 47  1  0
 14 48  1  0
 14 49  1  0
 15 50  1  0
 15 51  1  0
 16 52  1  0
 18 53  1  0
 19 54  1  0
 19 55  1  0
 20 56  1  0
 20 57  1  0
 22 58  1  0
 22 59  1  0
 23 60  1  0
 23 61  1  0
 23 62  1  0
 24 63  1  0
 24 64  1  0
 25 65  1  0
 25 66  1  0
 25 67  1  0
 26 68  1  0
 27 69  1  0
 27 70  1  0
 27 71  1  0
 28 72  1  0
 28 73  1  0
 28 74  1  0
 29 75  1  0
 29 76  1  0
 29 77  1  0
 30 78  1  0
 30 79  1  0
 30 80  1  0
 31 81  1  0
 32 82  1  0
 32 83  1  0
 32 84  1  0
 33 85  1  0
M  END
> <Name>
GFS2016_P4a

> <Clean Energy>
202.517

$$$$
GFS2016_P5a
  SciTegic12132405553D

 85 89  0  0  0  0            999 V2000
   -7.8016   -3.1706   -1.2357 C   0  0
   -8.0298   -4.6818   -1.4830 C   0  0  1  0  0  0
   -6.6829   -5.4703   -1.6331 C   0  0  1  0  0  0
   -5.6517   -5.2273   -0.4305 C   0  0  2  0  0  0
   -5.4537   -3.6486   -0.2815 C   0  0  1  0  0  0
   -6.8265   -2.9104   -0.0631 C   0  0
   -4.2577   -5.8682   -0.7973 C   0  0
   -3.0312   -5.3750    0.0265 C   0  0
   -2.8995   -3.8108    0.0332 C   0  0  1  0  0  0
   -4.2285   -3.1470    0.6279 C   0  0  1  0  0  0
   -1.4931   -3.1657    0.4814 C   0  0  2  0  0  0
   -1.4571   -1.5776    0.1586 C   0  0  1  0  0  0
   -2.7218   -0.9474    0.8933 C   0  0  2  0  0  0
   -4.0907   -1.5799    0.4936 C   0  0
   -0.2869   -3.8180   -0.3010 C   0  0
    1.1190   -3.2851    0.0861 C   0  0
    1.2940   -1.7206    0.2900 C   0  0  2  0  0  0
   -0.0549   -0.9316    0.6393 C   0  0  1  0  0  0
    1.9855   -1.1395   -1.0025 C   0  0
    2.3019    0.3787   -0.9741 C   0  0
    1.0730    1.2870   -0.6415 C   0  0  1  0  0  0
    0.1858    0.6407    0.5084 C   0  0
    1.6236    2.6652   -0.1057 C   0  0
    0.2732    1.6594   -1.9523 C   0  0
    2.3173   -1.5508    1.4846 C   0  0
   -1.6333   -1.2403   -1.3718 C   0  0
   -4.5068   -3.4566    2.1556 C   0  0
   -6.1676   -5.9308    0.8811 C   0  0
   -6.9806   -6.9532   -2.0272 C   0  0
   -8.8516   -5.2224   -0.4486 O   0  0
   -1.2564   -3.5363    2.0032 C   0  0
    0.1615    0.6153   -2.9128 O   0  0
   -2.9117    0.4480    0.6581 O   0  0
   -7.3104   -2.7869   -2.1300 H   0  0
   -8.7644   -2.7644   -0.9259 H   0  0
   -8.6284   -4.8263   -2.3823 H   0  0
   -6.1368   -5.0685   -2.4865 H   0  0
   -5.1086   -3.3103   -1.2585 H   0  0
   -7.2866   -3.3600    0.8167 H   0  0
   -6.6129   -1.8417   -0.0805 H   0  0
   -4.3512   -6.9275   -0.5581 H   0  0
   -4.0537   -5.5569   -1.8218 H   0  0
   -3.2248   -5.6693    1.0580 H   0  0
   -2.1501   -5.7531   -0.4919 H   0  0
   -2.8443   -3.5505   -1.0238 H   0  0
   -2.4940   -1.0501    1.9543 H   0  0
   -4.8075   -1.1654    1.2024 H   0  0
   -4.1943   -1.3714   -0.5713 H   0  0
   -0.2818   -4.8703   -0.0169 H   0  0
   -0.4218   -3.5361   -1.3452 H   0  0
    1.3184   -3.7278    1.0620 H   0  0
    1.7497   -3.5379   -0.7662 H   0  0
   -0.2616   -1.0830    1.6988 H   0  0
    2.9567   -1.6305   -1.0642 H   0  0
    1.2603   -1.2631   -1.8067 H   0  0
    3.0052    0.5157   -0.1528 H   0  0
    2.5958    0.6353   -1.9919 H   0  0
    0.7184    0.9012    1.4231 H   0  0
   -0.8100    1.0437    0.3240 H   0  0
    1.6209    2.6585    0.9842 H   0  0
    2.6415    2.8144   -0.4657 H   0  0
    0.9886    3.4748   -0.4657 H   0  0
   -0.7606    1.8492   -1.6637 H   0  0
    0.8421    2.4266   -2.4775 H   0  0
    2.6240   -2.5336    1.8427 H   0  0
    3.1923   -1.0010    1.1382 H   0  0
    1.8405   -1.0010    2.2961 H   0  0
   -1.6991   -2.1665   -1.9427 H   0  0
   -2.5455   -0.6607   -1.5134 H   0  0
   -0.7772   -0.6607   -1.7171 H   0  0
   -4.5346   -4.5355    2.3085 H   0  0
   -3.7131   -3.0238    2.7645 H   0  0
   -5.4642   -3.0238    2.4456 H   0  0
   -6.1186   -7.0125    0.7566 H   0  0
   -5.5423   -5.6333    1.7229 H   0  0
   -7.1988   -5.6333    1.0715 H   0  0
   -7.1008   -7.5520   -1.1244 H   0  0
   -7.8969   -6.9957   -2.6161 H   0  0
   -6.1517   -7.3460   -2.6161 H   0  0
   -8.8226   -6.1813   -0.4851 H   0  0
   -1.2391   -4.6205    2.1147 H   0  0
   -0.3043   -3.1218    2.3344 H   0  0
   -2.0631   -3.1218    2.6078 H   0  0
    0.0714   -0.2269   -2.4610 H   0  0
   -2.9744    0.9085    1.4981 H   0  0
  1  2  1  0
  3  2  1  0
  4  3  1  0
  5  4  1  0
  5  6  1  0
  6  1  1  0
  4  7  1  0
  7  8  1  0
  9  8  1  0
  9 10  1  0
 10  5  1  0
 11  9  1  0
 12 11  1  0
 12 13  1  0
 13 14  1  0
 10 14  1  0
 11 15  1  0
 15 16  1  0
 17 16  1  0
 18 17  1  0
 12 18  1  0
 17 19  1  0
 19 20  1  0
 21 20  1  0
 21 22  1  0
 18 22  1  0
 21 23  1  0
 21 24  1  0
 17 25  1  0
 12 26  1  0
 10 27  1  0
  4 28  1  0
  3 29  1  0
 11 31  1  0
 24 32  1  0
 13 33  1  0
  2 30  1  0
  1 34  1  0
  1 35  1  0
  2 36  1  0
  3 37  1  0
  5 38  1  0
  6 39  1  0
  6 40  1  0
  7 41  1  0
  7 42  1  0
  8 43  1  0
  8 44  1  0
  9 45  1  0
 13 46  1  0
 14 47  1  0
 14 48  1  0
 15 49  1  0
 15 50  1  0
 16 51  1  0
 16 52  1  0
 18 53  1  0
 19 54  1  0
 19 55  1  0
 20 56  1  0
 20 57  1  0
 22 58  1  0
 22 59  1  0
 23 60  1  0
 23 61  1  0
 23 62  1  0
 24 63  1  0
 24 64  1  0
 25 65  1  0
 25 66  1  0
 25 67  1  0
 26 68  1  0
 26 69  1  0
 26 70  1  0
 27 71  1  0
 27 72  1  0
 27 73  1  0
 28 74  1  0
 28 75  1  0
 28 76  1  0
 29 77  1  0
 29 78  1  0
 29 79  1  0
 30 80  1  0
 31 81  1  0
 31 82  1  0
 31 83  1  0
 32 84  1  0
 33 85  1  0
M  END
> <Name>
GFS2016_P5a

> <Clean Energy>
202.029

$$$$
GFS2016_P5b
  SciTegic12132405553D

 85 89  0  0  0  0            999 V2000
   -3.5074   -0.4344    3.4066 C   0  0
   -3.6394   -1.9742    3.4742 C   0  0  2  0  0  0
   -2.2451   -2.6811    3.3477 C   0  0  1  0  0  0
   -1.1922   -2.1668    4.4396 C   0  0  2  0  0  0
   -1.0836   -0.5763    4.3170 C   0  0  1  0  0  0
   -2.4937    0.1116    4.4376 C   0  0
    0.2325   -2.7576    4.1162 C   0  0
    1.4306   -2.0951    4.8500 C   0  0
    1.4841   -0.5387    4.6547 C   0  0  1  0  0  0
    0.1113    0.1386    5.1210 C   0  0  1  0  0  0
    2.8430    0.2098    5.0769 C   0  0  2  0  0  0
    2.8425    1.7163    4.4730 C   0  0  1  0  0  0
    1.5141    2.4281    4.9828 C   0  0  2  0  0  0
    0.1863    1.6564    4.6973 C   0  0
    4.1327   -0.5191    4.5149 C   0  0
    5.4901    0.1934    4.7936 C   0  0
    5.5561    1.7755    4.6966 C   0  0  2  0  0  0
    4.1624    2.4771    5.0091 C   0  0  1  0  0  0
    6.0704    2.2118    3.2770 C   0  0
    6.1113    3.7514    3.0066 C   0  0
    4.9981    4.6997    3.6311 C   0  0  1  0  0  0
    4.3061    4.0507    4.8952 C   0  0
    5.7242    6.0262    4.0876 C   0  0
    3.8971    5.2029    2.6149 C   0  0
    6.6557    2.2157    5.7459 C   0  0
    2.7752    1.7335    2.8786 C   0  0
   -0.1653    0.0993    6.6777 C   0  0
   -1.6306   -2.6738    5.8651 C   0  0
   -2.4418   -4.2286    3.2367 C   0  0
   -4.5355   -2.3600    2.4286 O   0  0
    2.9971    0.1150    6.6555 C   0  0
    4.4273    5.6341    1.3651 O   0  0
    1.2998    3.7050    4.3741 O   0  0
   -3.1910   -0.1403    2.4013 H   0  0
   -4.4834    0.0209    3.5928 H   0  0
   -4.1152   -2.2481    4.4203 H   0  0
   -1.8556   -2.3890    2.3665 H   0  0
   -0.8270   -0.4046    3.2626 H   0  0
   -2.9127   -0.0138    5.4344 H   0  0
   -2.4238    1.1838    4.2536 H   0  0
    0.4250   -2.6646    3.0423 H   0  0
    0.2635   -3.8251    4.3481 H   0  0
    2.3197   -2.5599    4.4228 H   0  0
    1.4104   -2.3669    5.9038 H   0  0
    1.4820   -0.4615    3.5660 H   0  0
    1.5874    2.6245    6.0537 H   0  0
   -0.0282    1.7345    3.6300 H   0  0
   -0.6127    2.2169    5.1925 H   0  0
    4.0594   -0.7062    3.4467 H   0  0
    4.2177   -1.5163    4.9554 H   0  0
    6.2400   -0.2529    4.1339 H   0  0
    5.7960   -0.1324    5.7922 H   0  0
    4.0427    2.3913    6.0875 H   0  0
    5.5062    1.7147    2.4933 H   0  0
    7.0892    1.8304    3.1403 H   0  0
    6.1643    3.8990    1.9257 H   0  0
    7.0955    4.0615    3.3718 H   0  0
    4.8848    4.3552    5.7728 H   0  0
    3.3583    4.5432    5.0851 H   0  0
    6.5145    5.8100    4.8102 H   0  0
    6.1850    6.5370    3.2376 H   0  0
    5.0301    6.7210    4.5681 H   0  0
    3.1398    4.4634    2.4056 H   0  0
    3.3412    6.0452    3.0358 H   0  0
    6.9072    3.2732    5.6816 H   0  0
    6.3162    2.0233    6.7664 H   0  0
    7.5856    1.6605    5.5984 H   0  0
    3.4841    2.4137    2.4566 H   0  0
    1.8154    2.0425    2.4716 H   0  0
    2.9886    0.7873    2.3986 H   0  0
    0.3473   -0.7244    7.1646 H   0  0
   -1.2225    0.0029    6.9110 H   0  0
    0.1470    1.0098    7.1878 H   0  0
   -0.8678   -2.5138    6.6184 H   0  0
   -2.5412   -2.1871    6.2098 H   0  0
   -1.8105   -3.7475    5.8645 H   0  0
   -1.4897   -4.7522    3.1942 H   0  0
   -2.9745   -4.4773    2.3170 H   0  0
   -3.0206   -4.6193    4.0743 H   0  0
   -4.7462   -3.3016    2.5956 H   0  0
    2.3482    0.8014    7.1785 H   0  0
    2.8011   -0.8918    7.0225 H   0  0
    3.9917    0.3612    7.0133 H   0  0
    3.6392    5.8514    0.8228 H   0  0
    0.5017    4.0698    4.8120 H   0  0
  2  1  1  0
  2  3  1  0
  3  4  1  0
  4  5  1  0
  5  6  1  0
  6  1  1  0
  4  7  1  0
  7  8  1  0
  9  8  1  0
 10  9  1  0
  5 10  1  0
  9 11  1  0
 11 12  1  0
 12 13  1  0
 13 14  1  0
 10 14  1  0
 11 15  1  0
 15 16  1  0
 17 16  1  0
 18 17  1  0
 12 18  1  0
 17 19  1  0
 19 20  1  0
 21 20  1  0
 21 22  1  0
 18 22  1  0
 21 23  1  0
 21 24  1  0
 17 25  1  0
 12 26  1  0
 10 27  1  0
  4 28  1  0
  3 29  1  0
 11 31  1  0
 24 32  1  0
 13 33  1  0
  2 30  1  0
  1 34  1  0
  1 35  1  0
  2 36  1  0
  3 37  1  0
  5 38  1  0
  6 39  1  0
  6 40  1  0
  7 41  1  0
  7 42  1  0
  8 43  1  0
  8 44  1  0
  9 45  1  0
 13 46  1  0
 14 47  1  0
 14 48  1  0
 15 49  1  0
 15 50  1  0
 16 51  1  0
 16 52  1  0
 18 53  1  0
 19 54  1  0
 19 55  1  0
 20 56  1  0
 20 57  1  0
 22 58  1  0
 22 59  1  0
 23 60  1  0
 23 61  1  0
 23 62  1  0
 24 63  1  0
 24 64  1  0
 25 65  1  0
 25 66  1  0
 25 67  1  0
 26 68  1  0
 26 69  1  0
 26 70  1  0
 27 71  1  0
 27 72  1  0
 27 73  1  0
 28 74  1  0
 28 75  1  0
 28 76  1  0
 29 77  1  0
 29 78  1  0
 29 79  1  0
 30 80  1  0
 31 81  1  0
 31 82  1  0
 31 83  1  0
 32 84  1  0
 33 85  1  0
M  END
> <Name>
GFS2016_P5b

> <Clean Energy>
202.029

$$$$
FLF2019_TM02
  SciTegic12132405553D

 80 79  0  0  0  0            999 V2000
   -1.9896    7.2677   16.6467 C   0  0
   -1.7226    6.1841   17.7096 C   0  0
   -1.9802    6.7555   19.0756 C   0  0
   -1.7372    6.0368   20.1719 C   0  0
   -1.3786    5.4543   15.0878 C   0  0
   -1.7198    6.7324   15.2636 C   0  0
   -0.3504    3.7176   11.3876 C   0  0
   -1.0935    4.9264   13.7098 C   0  0
   -0.9828    3.3886   13.7453 C   0  0
   -0.6481    2.8653   12.3708 C   0  0
    0.5990    4.3844    9.2016 C   0  0
   -0.0182    3.2276   10.0061 C   0  0
    1.6411    4.6674    6.9829 C   0  0
    0.8803    3.9311    7.7962 C   0  0
    0.6420    1.5439    3.2708 C   0  0
    1.9070    4.2107    5.5711 C   0  0
    1.0735    2.9555    5.2469 C   0  0
    1.3653    2.5087    3.8419 C   0  0
    2.1707    1.8530    1.3097 C   0  0
    0.9470    1.0961    1.8637 C   0  0
    3.5113    1.8483   -0.7603 C   0  0
    2.4585    1.3820   -0.0881 C   0  0
   -2.0020    6.6308   21.5245 C   0  0
   -1.1951    4.6368   20.0635 C   0  0
   -1.8382    7.6542   14.0796 C   0  0
   -0.6395    1.3816   12.1210 C   0  0
    2.2453    5.9567    7.4698 C   0  0
   -0.4871    0.8952    4.0251 C   0  0
    3.7780    1.3627   -2.1552 C   0  0
    4.4358    2.8552   -0.1300 C   0  0
   -3.0308    7.5839   16.7115 H   0  0
   -1.3379    8.1211   16.8338 H   0  0
   -2.3851    5.3356   17.5390 H   0  0
   -0.6855    5.8555   17.6420 H   0  0
   -2.3701    7.7689   19.1711 H   0  0
   -1.3062    4.7895   15.9486 H   0  0
   -0.3481    4.7886   11.5903 H   0  0
   -0.1548    5.3473   13.3495 H   0  0
   -1.9027    5.2143   13.0388 H   0  0
   -0.1971    3.0991   14.4431 H   0  0
   -1.9330    2.9655   14.0713 H   0  0
   -0.0978    5.2222    9.1792 H   0  0
    1.5299    4.6979    9.6741 H   0  0
   -0.9266    2.8825    9.5123 H   0  0
    0.6951    2.4060   10.0713 H   0  0
    0.4591    2.9919    7.4377 H   0  0
    2.9660    3.9764    5.4629 H   0  0
    1.6384    5.0088    4.8789 H   0  0
    1.3329    2.1577    5.9428 H   0  0
    0.0131    3.1896    5.3406 H   0  0
    2.1758    2.9776    3.2839 H   0  0
    1.9613    2.9226    1.2970 H   0  0
    3.0358    1.6591    1.9439 H   0  0
    0.0840    1.2961    1.2287 H   0  0
    1.1575    0.0266    1.8654 H   0  0
    1.7995    0.6515   -0.5574 H   0  0
   -2.3888    7.6431   21.4080 H   0  0
   -1.0748    6.6603   22.0968 H   0  0
   -2.7351    6.0208   22.0526 H   0  0
   -1.0670    4.3766   19.0128 H   0  0
   -1.8928    3.9395   20.5274 H   0  0
   -0.2325    4.5790   20.5716 H   0  0
   -1.6104    7.1045   13.1664 H   0  0
   -1.1362    8.4806   14.1903 H   0  0
   -2.8539    8.0458   14.0235 H   0  0
   -0.3785    1.1894   11.0804 H   0  0
   -1.6281    0.9719   12.3287 H   0  0
    0.0942    0.9072   12.7727 H   0  0
    1.9502    6.1288    8.5049 H   0  0
    1.8921    6.7810    6.8501 H   0  0
    3.3319    5.8956    7.4077 H   0  0
   -0.5637    1.3387    5.0178 H   0  0
   -0.2952   -0.1737    4.1191 H   0  0
   -1.4215    1.0500    3.4855 H   0  0
    4.6726    1.8485   -2.5447 H   0  0
    2.9275    1.6035   -2.7931 H   0  0
    3.9278    0.2831   -2.1422 H   0  0
    5.2291    3.1105   -0.8325 H   0  0
    4.8740    2.4311    0.7735 H   0  0
    3.8748    3.7540    0.1261 H   0  0
  1  2  1  0
  2  3  1  0
  1  6  1  0
  8  9  1  0
  9 10  1  0
  5  8  1  0
 11 12  1  0
 11 14  1  0
 12  7  1  0
 16 17  1  0
 17 18  1  0
 13 16  1  0
 19 20  1  0
 19 22  1  0
 20 15  1  0
  4 23  1  0
  4 24  1  0
  3  4  2  0
  5  6  2  0
  6 25  1  0
  7 10  2  0
 10 26  1  0
 13 14  2  0
 13 27  1  0
 15 18  2  0
 15 28  1  0
 21 22  2  0
 21 29  1  0
 21 30  1  0
  1 31  1  0
  1 32  1  0
  2 33  1  0
  2 34  1  0
  3 35  1  0
  5 36  1  0
  7 37  1  0
  8 38  1  0
  8 39  1  0
  9 40  1  0
  9 41  1  0
 11 42  1  0
 11 43  1  0
 12 44  1  0
 12 45  1  0
 14 46  1  0
 16 47  1  0
 16 48  1  0
 17 49  1  0
 17 50  1  0
 18 51  1  0
 19 52  1  0
 19 53  1  0
 20 54  1  0
 20 55  1  0
 22 56  1  0
 23 57  1  0
 23 58  1  0
 23 59  1  0
 24 60  1  0
 24 61  1  0
 24 62  1  0
 25 63  1  0
 25 64  1  0
 25 65  1  0
 26 66  1  0
 26 67  1  0
 26 68  1  0
 27 69  1  0
 27 70  1  0
 27 71  1  0
 28 72  1  0
 28 73  1  0
 28 74  1  0
 29 75  1  0
 29 76  1  0
 29 77  1  0
 30 78  1  0
 30 79  1  0
 30 80  1  0
M  END
> <Name>
FLF2019_TM02

> <Clean Energy>
-2.1526300907135

$$$$
FLF2019_TM03
  SciTegic12132405553D

 81 85  0  0  0  0            999 V2000
   -1.3978    1.2860   -1.4852 C   0  0
   -0.5632    1.2707   -0.1874 C   0  0
    0.1240   -0.0392   -0.0936 C   0  0
   -0.7393   -1.2415   -0.0090 C   0  0  1  0  0  0
   -1.5364   -1.3354   -1.3729 C   0  0  2  0  0  0
   -2.3898    0.0541   -1.5014 C   0  0  2  0  0  0
   -3.4133    0.1074   -2.7733 C   0  0  1  0  0  0
   -2.5688   -2.4841   -1.3042 C   0  0
   -3.5485   -2.5536   -2.5302 C   0  0
   -4.4040   -1.2258   -2.5616 C   0  0  2  0  0  0
   -5.5434    1.3415   -3.7803 C   0  0
   -4.3192    1.3856   -2.6957 C   0  0
   -5.6734   -1.3144   -3.6498 C   0  0  2  0  0  0
   -6.5222    0.0838   -3.5127 C   0  0  2  0  0  0
   -7.7786    0.0190   -4.7254 C   0  0  1  0  0  0
   -6.7000   -2.5312   -3.3097 C   0  0
   -7.8522   -2.5847   -4.3977 C   0  0
   -8.7493   -1.3034   -4.5553 C   0  0  1  0  0  0
  -10.0630    1.5336   -3.9441 C   0  0
   -8.8376    1.2648   -4.9810 C   0  0
   -9.8549   -1.0529   -3.3756 C   0  0
  -10.8282    0.1929   -3.8049 C   0  0
   -9.7643    2.0618   -2.5592 C   0  0
  -10.9552    2.6196   -4.5401 C   0  0
    1.3544   -0.1201   -0.0149 O   0  0
    0.1073   -2.4925    0.3725 C   0  0
   -0.4873   -1.6502   -2.5342 C   0  0
   -2.6225    0.2801   -4.1669 C   0  0
   -5.1074   -1.6150   -5.1483 C   0  0
   -9.5544   -1.6466   -5.8664 C   0  0
   -6.9981    0.2380   -1.9965 C   0  0
   -3.0269    0.0981   -0.6078 H   0  0
   -4.8453   -1.1302   -1.5743 H   0  0
   -7.1932   -0.0872   -5.6359 H   0  0
   -1.9550    2.2289   -1.5222 H   0  0
   -0.7278    1.2264   -2.3510 H   0  0
    0.1518    2.1043   -0.1695 H   0  0
   -1.2840    1.3478    0.6384 H   0  0
   -1.5062   -1.0613    0.7571 H   0  0
   -3.2016   -2.3212   -0.4212 H   0  0
   -2.0339   -3.4355   -1.1971 H   0  0
   -3.0121   -2.7017   -3.4760 H   0  0
   -4.2183   -3.4023   -2.3564 H   0  0
   -6.1326    2.2630   -3.6818 H   0  0
   -5.1403    1.2820   -4.7967 H   0  0
   -3.6967    2.2772   -2.8396 H   0  0
   -4.7549    1.4341   -1.7038 H   0  0
   -7.1286   -2.4118   -2.3119 H   0  0
   -6.1535   -3.4812   -3.3493 H   0  0
   -7.3615   -2.7319   -5.3453 H   0  0
   -8.5106   -3.4468   -4.2293 H   0  0
   -9.3528    1.0069   -5.9077 H   0  0
   -8.2732    2.1926   -5.1420 H   0  0
   -9.3922   -0.8640   -2.4225 H   0  0
  -10.4740   -1.9556   -3.2958 H   0  0
  -11.2559   -0.0541   -4.7695 H   0  0
  -11.6499    0.3323   -3.0902 H   0  0
  -10.7178    2.2238   -2.0388 H   0  0
   -9.2221    3.0140   -2.6334 H   0  0
   -9.2216    1.3788   -2.0094 H   0  0
  -11.8262    2.7743   -3.8884 H   0  0
  -11.2923    2.3048   -5.5375 H   0  0
  -10.3847    3.5549   -4.6217 H   0  0
   -0.5417   -3.3746    0.4514 H   0  0
    0.5917   -2.3126    1.3418 H   0  0
    0.8801   -2.6746   -0.3842 H   0  0
   -0.9833   -1.7552   -3.4806 H   0  0
    0.0228   -2.5950   -2.3237 H   0  0
    0.2572   -0.8484   -2.6054 H   0  0
   -2.0210    1.1941   -4.1311 H   0  0
   -3.2994    0.3801   -4.9867 H   0  0
   -1.9882   -0.5483   -4.3653 H   0  0
   -4.5699   -2.5703   -5.1472 H   0  0
   -4.4666   -0.8630   -5.4816 H   0  0
   -5.9072   -1.6730   -5.8774 H   0  0
  -10.2160   -0.8389   -6.1733 H   0  0
  -10.1504   -2.5520   -5.6909 H   0  0
   -8.8374   -1.8348   -6.6769 H   0  0
   -7.4714    1.1680   -1.8888 H   0  0
   -6.1810    0.2267   -1.2927 H   0  0
   -7.6732   -0.5582   -1.7151 H   0  0
  1  2  1  0
  2  3  1  0
  3  4  1  0
  4  5  1  0
  5  6  1  0
  1  6  1  0
  8  9  1  0
  9 10  1  0
  7 10  1  0
  5  8  1  0
 11 12  1  0
 13 14  1  0
 11 14  1  0
 12  7  1  0
 10 13  1  0
 16 17  1  0
 17 18  1  0
 15 18  1  0
 13 16  1  0
 15 14  1  0
 19 20  1  0
 21 22  1  0
 19 22  1  0
 20 15  1  0
 18 21  1  0
 19 23  1  0
 19 24  1  0
  3 25  2  0
  7  6  1  0
  4 26  1  0
  5 27  1  0
  7 28  1  0
 13 29  1  0
 14 31  1  0
 18 30  1  0
  6 32  1  0
 10 33  1  0
 15 34  1  0
  1 35  1  0
  1 36  1  0
  2 37  1  0
  2 38  1  0
  4 39  1  0
  8 40  1  0
  8 41  1  0
  9 42  1  0
  9 43  1  0
 11 44  1  0
 11 45  1  0
 12 46  1  0
 12 47  1  0
 16 48  1  0
 16 49  1  0
 17 50  1  0
 17 51  1  0
 20 52  1  0
 20 53  1  0
 21 54  1  0
 21 55  1  0
 22 56  1  0
 22 57  1  0
 23 58  1  0
 23 59  1  0
 23 60  1  0
 24 61  1  0
 24 62  1  0
 24 63  1  0
 26 64  1  0
 26 65  1  0
 26 66  1  0
 27 67  1  0
 27 68  1  0
 27 69  1  0
 28 70  1  0
 28 71  1  0
 28 72  1  0
 29 73  1  0
 29 74  1  0
 29 75  1  0
 30 76  1  0
 30 77  1  0
 30 78  1  0
 31 79  1  0
 31 80  1  0
 31 81  1  0
M  END
> <Name>
FLF2019_TM03

> <Clean Energy>
95.0443

$$$$
FLF2019_TM04
  SciTegic12132405553D

 83 87  0  0  0  0            999 V2000
   -5.0132   -2.0096   -4.7778 C   0  0
   -6.5420   -1.6947   -4.7781 C   0  0
   -7.0109   -0.9551   -6.0445 C   0  0  1  0  0  0
   -6.1877    0.3916   -6.1176 C   0  0  1  0  0  0
   -4.5846    0.1785   -6.1857 C   0  0  2  0  0  0
   -4.2080   -0.6481   -4.8338 C   0  0  2  0  0  0
   -2.6073   -0.8581   -4.5925 C   0  0  1  0  0  0
   -3.8660    1.5475   -6.0827 C   0  0
   -2.3019    1.4475   -5.9265 C   0  0
   -1.9854    0.7008   -4.5743 C   0  0  2  0  0  0
   -0.7539   -1.4525   -2.7792 C   0  0
   -2.3392   -1.4825   -3.1779 C   0  0
   -0.3632    0.7820   -4.1713 C   0  0  2  0  0  0
   -0.1937    0.0598   -2.7075 C   0  0  2  0  0  0
    1.5169    0.0587   -2.3523 C   0  0  1  0  0  0
    0.1637    2.3141   -4.0104 C   0  0
    1.7125    2.3187   -3.6721 C   0  0
    2.1621    1.5758   -2.3620 C   0  0  1  0  0  0
    1.9999    0.0993    0.4559 C   0  0
    2.1446   -0.6368   -0.9882 C   0  0
    1.8367    2.3442   -0.9547 C   0  0
    2.5520    1.5367    0.2781 C   0  0
    0.6419    0.1847    1.1153 C   0  0
    2.8249   -0.6878    1.4710 C   0  0
   -6.9230   -1.8309   -7.1954 O   0  0
   -6.7436    1.2191   -7.3124 C   0  0
   -4.1562   -0.4467   -7.5956 C   0  0
   -1.9946   -1.9490   -5.6109 C   0  0
    0.5378    0.1219   -5.3569 C   0  0
    3.7298    1.5751   -2.5268 C   0  0
   -1.1419    0.8096   -1.6641 C   0  0
   -4.5503   -0.0241   -3.9970 H   0  0
   -2.5282    1.2404   -3.8044 H   0  0
    1.9116   -0.4986   -3.1990 H   0  0
   -4.7874   -2.5301   -3.8413 H   0  0
   -4.7475   -2.6532   -5.6263 H   0  0
   -7.1172   -2.6248   -4.6785 H   0  0
   -6.7367   -1.0514   -3.9088 H   0  0
   -8.0721   -0.6939   -5.9359 H   0  0
   -6.3954    0.9322   -5.1840 H   0  0
   -4.2295    2.0569   -5.1800 H   0  0
   -4.1164    2.1485   -6.9649 H   0  0
   -1.8355    0.9371   -6.7777 H   0  0
   -1.9187    2.4714   -5.8649 H   0  0
   -0.6320   -1.9112   -1.7889 H   0  0
   -0.1740   -2.0238   -3.5114 H   0  0
   -2.7306   -2.5068   -3.1576 H   0  0
   -2.8796   -0.8995   -2.4403 H   0  0
   -0.3943    2.8385   -3.2313 H   0  0
    0.0244    2.8414   -4.9618 H   0  0
    2.1984    1.8145   -4.4909 H   0  0
    2.1028    3.3441   -3.6370 H   0  0
    3.2236   -0.6463   -1.1515 H   0  0
    1.7934   -1.6744   -0.9163 H   0  0
    0.7786    2.4414   -0.7835 H   0  0
    2.2804    3.3466   -1.0068 H   0  0
    3.6077    1.4669    0.0439 H   0  0
    2.4460    2.0718    1.2309 H   0  0
    0.7638    0.6658    2.0950 H   0  0
    0.2310   -0.8245    1.2523 H   0  0
   -0.0048    0.7660    0.5612 H   0  0
    2.7953   -0.1741    2.4418 H   0  0
    3.8642   -0.7540    1.1203 H   0  0
    2.4058   -1.6981    1.5753 H   0  0
   -6.0658   -2.2321   -7.2920 H   0  0
   -6.2472    2.1961   -7.3613 H   0  0
   -7.8220    1.3701   -7.1680 H   0  0
   -6.5819    0.6790   -8.2535 H   0  0
   -3.0868   -0.5441   -7.6607 H   0  0
   -4.4754    0.2186   -8.4041 H   0  0
   -4.5907   -1.4102   -7.7431 H   0  0
   -2.5246   -2.8987   -5.4829 H   0  0
   -0.9610   -2.1322   -5.4063 H   0  0
   -2.0768   -1.6385   -6.6223 H   0  0
    0.3718    0.6751   -6.2886 H   0  0
    0.3042   -0.8831   -5.5103 H   0  0
    1.5960    0.1531   -5.1240 H   0  0
    4.2342    1.0507   -1.7176 H   0  0
    4.0846    2.6138   -2.5578 H   0  0
    3.9809    1.0768   -3.4729 H   0  0
   -1.0965    0.3012   -0.7476 H   0  0
   -2.1787    0.8139   -1.9610 H   0  0
   -0.8426    1.8403   -1.5331 H   0  0
  1  2  1  0
  2  3  1  0
  3  4  1  0
  4  5  1  0
  5  6  1  0
  1  6  1  0
  8  9  1  0
  9 10  1  0
  7 10  1  0
  5  8  1  0
 11 12  1  0
 13 14  1  0
 11 14  1  0
 12  7  1  0
 10 13  1  0
 16 17  1  0
 17 18  1  0
 15 18  1  0
 13 16  1  0
 15 14  1  0
 19 20  1  0
 21 22  1  0
 19 22  1  0
 20 15  1  0
 18 21  1  0
 19 23  1  0
 19 24  1  0
  7  6  1  0
  4 26  1  0
  5 27  1  0
  7 28  1  0
 13 29  1  0
 14 31  1  0
 18 30  1  0
  6 32  1  0
 10 33  1  0
 15 34  1  0
  3 25  1  0
  1 35  1  0
  1 36  1  0
  2 37  1  0
  2 38  1  0
  3 39  1  0
  4 40  1  0
  8 41  1  0
  8 42  1  0
  9 43  1  0
  9 44  1  0
 11 45  1  0
 11 46  1  0
 12 47  1  0
 12 48  1  0
 16 49  1  0
 16 50  1  0
 17 51  1  0
 17 52  1  0
 20 53  1  0
 20 54  1  0
 21 55  1  0
 21 56  1  0
 22 57  1  0
 22 58  1  0
 23 59  1  0
 23 60  1  0
 23 61  1  0
 24 62  1  0
 24 63  1  0
 24 64  1  0
 25 65  1  0
 26 66  1  0
 26 67  1  0
 26 68  1  0
 27 69  1  0
 27 70  1  0
 27 71  1  0
 28 72  1  0
 28 73  1  0
 28 74  1  0
 29 75  1  0
 29 76  1  0
 29 77  1  0
 30 78  1  0
 30 79  1  0
 30 80  1  0
 31 81  1  0
 31 82  1  0
 31 83  1  0
M  END
> <Name>
FLF2019_TM04

> <Clean Energy>
76.9003

$$$$
FLF2019_TM05
  SciTegic12132405553D

 84 87  0  0  0  0            999 V2000
   -0.8669   -1.4854   -1.6266 C   0  0
    0.1769   -1.0142   -0.5821 C   0  0
   -1.6674   -2.9489   -3.5641 C   0  0  1  0  0  0
   -0.5845   -2.8623   -2.3750 C   0  0  2  0  0  0
   -0.5713   -4.2074   -1.4176 C   0  0  1  0  0  0
   -1.3616   -4.2187   -4.3884 C   0  0
   -1.4033   -5.5200   -3.5346 C   0  0
   -0.2856   -5.4500   -2.4547 C   0  0  2  0  0  0
    0.7184   -5.6426    0.3852 C   0  0
    0.5863   -4.2459   -0.3764 C   0  0
   -0.1108   -6.8735   -1.7282 C   0  0  2  0  0  0
    1.2192   -6.7024   -0.6611 C   0  0  2  0  0  0
    1.8806   -8.1439   -0.0884 C   0  0  1  0  0  0
    0.1676   -8.0581   -2.5462 C   0  0
    0.1982   -9.3974   -1.4636 C   0  0
    0.8257   -9.2115    0.1267 C   0  0  1  0  0  0
    3.5727  -10.0999   -0.6474 C   0  0
    2.9128   -8.7824   -1.1563 C   0  0
    1.4266  -10.5673    0.6094 C   0  0
    2.4440  -11.1149   -0.4156 C   0  0
    4.3843   -9.8696    0.6550 C   0  0
    4.5244  -10.6435   -1.7268 C   0  0
   -3.1711   -2.9499   -3.1427 C   0  0
   -1.8908   -4.2656   -0.5515 C   0  0
   -1.5200   -7.2979   -1.1585 C   0  0
   -0.1755   -8.8229    1.2670 C   0  0
    2.5158   -6.0858   -1.2758 C   0  0
    0.3947   -2.8142   -2.8707 H   0  0
    0.6565   -5.2407   -2.9662 H   0  0
    2.4953   -7.9129    0.7873 H   0  0
   -1.4760   -1.7085   -4.4723 C   0  0
   -2.4326   -1.7711   -5.6828 C   0  0
   -0.2698    0.2879    0.0104 C   0  0
   -1.3295    0.8043   -0.3616 O   0  0
    0.5073    0.9141    0.9794 O   0  0
   -1.8229   -1.5831   -1.1121 H   0  0
   -0.9411   -0.7088   -2.3878 H   0  0
    0.2662   -1.7615    0.2063 H   0  0
    1.1435   -0.8806   -1.0679 H   0  0
   -0.3670   -4.1198   -4.8231 H   0  0
   -2.1005   -4.3020   -5.1854 H   0  0
   -2.3754   -5.6083   -3.0496 H   0  0
   -1.2373   -6.3846   -4.1772 H   0  0
    1.4366   -5.5558    1.2005 H   0  0
   -0.2506   -5.9423    0.7844 H   0  0
    0.4091   -3.4657    0.3639 H   0  0
    1.5235   -4.0478   -0.8966 H   0  0
    1.1312   -7.9541   -3.0449 H   0  0
   -0.6154   -8.1938   -3.2922 H   0  0
   -0.8319   -9.7372   -1.3563 H   0  0
    0.7899  -10.1761   -1.9450 H   0  0
    3.6990   -8.0549   -1.3579 H   0  0
    2.3714   -8.9978   -2.0775 H   0  0
    0.6207  -11.2907    0.7336 H   0  0
    1.9291  -10.4150    1.5645 H   0  0
    2.8695  -12.0443   -0.0371 H   0  0
    1.9342  -11.3062   -1.3599 H   0  0
    4.8288  -10.8109    0.9780 H   0  0
    3.7218   -9.4946    1.4351 H   0  0
    5.1734   -9.1412    0.4679 H   0  0
    4.9872  -11.5649   -1.3734 H   0  0
    5.2988   -9.9050   -1.9345 H   0  0
    3.9625  -10.8463   -2.6386 H   0  0
   -3.7981   -3.0116   -4.0321 H   0  0
   -3.3980   -2.0311   -2.6019 H   0  0
   -3.3682   -3.8077   -2.4997 H   0  0
   -1.9474   -3.3827    0.0850 H   0  0
   -1.8787   -5.1609    0.0702 H   0  0
   -2.7581   -4.2936   -1.2112 H   0  0
   -2.2399   -7.3564   -1.9749 H   0  0
   -1.8559   -6.5590   -0.4309 H   0  0
   -1.4391   -8.2718   -0.6758 H   0  0
    0.3625   -8.7415    2.2115 H   0  0
   -0.9450   -9.5901    1.3527 H   0  0
   -0.6417   -7.8661    1.0315 H   0  0
    3.2888   -6.0260   -0.5097 H   0  0
    2.3000   -5.0859   -1.6524 H   0  0
    2.8647   -6.7146   -2.0950 H   0  0
   -1.6851   -0.8069   -3.8964 H   0  0
   -0.4467   -1.6813   -4.8298 H   0  0
   -2.2842   -0.8919   -6.3097 H   0  0
   -3.4639   -1.7957   -5.3307 H   0  0
   -2.2259   -2.6699   -6.2638 H   0  0
    0.6102    0.2799    1.8099 H   0  0
  1  2  1  0
  3  4  1  0
  1  4  1  0
  6  7  1  0
  7  8  1  0
  5  8  1  0
  3  6  1  0
  9 10  1  0
 11 12  1  0
  9 12  1  0
 10  5  1  0
  8 11  1  0
 14 15  1  0
 15 16  1  0
 13 16  1  0
 11 14  1  0
 13 12  1  0
 17 18  1  0
 19 20  1  0
 17 20  1  0
 18 13  1  0
 16 19  1  0
 17 21  1  0
 17 22  1  0
  5  4  1  0
  3 23  1  0
  5 24  1  0
 11 25  1  0
 12 27  1  0
 16 26  1  0
  4 28  1  0
  8 29  1  0
 13 30  1  0
  3 31  1  0
 31 32  1  0
  2 33  1  0
 33 34  2  0
 33 35  1  0
  1 36  1  0
  1 37  1  0
  2 38  1  0
  2 39  1  0
  6 40  1  0
  6 41  1  0
  7 42  1  0
  7 43  1  0
  9 44  1  0
  9 45  1  0
 10 46  1  0
 10 47  1  0
 14 48  1  0
 14 49  1  0
 15 50  1  0
 15 51  1  0
 18 52  1  0
 18 53  1  0
 19 54  1  0
 19 55  1  0
 20 56  1  0
 20 57  1  0
 21 58  1  0
 21 59  1  0
 21 60  1  0
 22 61  1  0
 22 62  1  0
 22 63  1  0
 23 64  1  0
 23 65  1  0
 23 66  1  0
 24 67  1  0
 24 68  1  0
 24 69  1  0
 25 70  1  0
 25 71  1  0
 25 72  1  0
 26 73  1  0
 26 74  1  0
 26 75  1  0
 27 76  1  0
 27 77  1  0
 27 78  1  0
 31 79  1  0
 31 80  1  0
 32 81  1  0
 32 82  1  0
 32 83  1  0
 35 84  1  0
M  END
> <Name>
FLF2019_TM05

> <Clean Energy>
105.022

$$$$
FLF2019_TM06
  SciTegic12132405553D

 82 86  0  0  0  0            999 V2000
   -1.5616    1.2513   -1.5531 C   0  0
   -0.6303    1.3487   -0.3113 C   0  0
   -0.0255    0.0067    0.0655 C   0  0
   -0.8540   -1.2418   -0.0778 C   0  0  1  0  0  0
   -1.6339   -1.3076   -1.4008 C   0  0  2  0  0  0
   -2.5066    0.0251   -1.5063 C   0  0  2  0  0  0
   -3.4979    0.0655   -2.7530 C   0  0  1  0  0  0
   -2.6129   -2.5059   -1.3486 C   0  0
   -3.5803   -2.5434   -2.5814 C   0  0
   -4.4440   -1.2390   -2.5726 C   0  0  2  0  0  0
   -5.5349    1.2724   -3.8192 C   0  0
   -4.4200    1.3162   -2.6829 C   0  0
   -5.6441   -1.3191   -3.6641 C   0  0  2  0  0  0
   -6.4948    0.0506   -3.5739 C   0  0  2  0  0  0
   -7.6807   -0.0241   -4.7748 C   0  0  1  0  0  0
   -6.6195   -2.5000   -3.3584 C   0  0
   -7.6951   -2.5722   -4.4995 C   0  0
   -8.6139   -1.3048   -4.6248 C   0  0  1  0  0  0
   -9.8826    1.4457   -3.9617 C   0  0
   -8.7024    1.2101   -5.0087 C   0  0
   -9.6421   -1.1343   -3.4320 C   0  0
  -10.6163    0.0689   -3.8147 C   0  0
   -9.4909    2.0227   -2.5991 C   0  0
  -10.8599    2.4766   -4.5524 C   0  0
    1.0061   -0.0264    0.7442 O   0  0
   -0.0165   -2.5084    0.1928 C   0  0
   -0.5809   -1.5425   -2.5403 C   0  0
   -2.7047    0.2008   -4.1104 C   0  0
   -5.0788   -1.5986   -5.1077 C   0  0
   -9.4756   -1.4993   -5.9020 C   0  0
   -6.9880    0.1720   -2.0941 C   0  0
   -3.1359    0.0586   -0.6066 H   0  0
   -4.8951   -1.1603   -1.5848 H   0  0
   -7.1096   -0.1212   -5.6956 H   0  0
  -10.2817   -2.6713   -5.7587 O   0  0
   -2.1683    2.1554   -1.6039 H   0  0
   -0.9420    1.1782   -2.4469 H   0  0
    0.1772    2.0465   -0.5333 H   0  0
   -1.2106    1.7205    0.5331 H   0  0
   -1.6031   -1.2000    0.7130 H   0  0
   -3.2086   -2.4313   -0.4389 H   0  0
   -2.0343   -3.4295   -1.3300 H   0  0
   -3.0001   -2.5942   -3.5028 H   0  0
   -4.2305   -3.4155   -2.5123 H   0  0
   -6.1121    2.1967   -3.7960 H   0  0
   -5.0559    1.1668   -4.7926 H   0  0
   -3.8139    2.2127   -2.8137 H   0  0
   -4.9066    1.3451   -1.7080 H   0  0
   -7.1118   -2.3305   -2.4007 H   0  0
   -6.0619   -3.4357   -3.3203 H   0  0
   -7.1741   -2.7074   -5.4473 H   0  0
   -8.3332   -3.4351   -4.3088 H   0  0
   -9.1658    1.0607   -5.9839 H   0  0
   -8.1042    2.1211   -5.0259 H   0  0
   -9.1086   -0.9034   -2.5100 H   0  0
  -10.2160   -2.0515   -3.3004 H   0  0
  -11.0997   -0.1671   -4.7627 H   0  0
  -11.3717    0.1623   -3.0344 H   0  0
  -10.3820    2.1343   -1.9815 H   0  0
   -9.0213    2.9966   -2.7378 H   0  0
   -8.7901    1.3487   -2.1064 H   0  0
  -11.6744    2.6503   -3.8493 H   0  0
  -11.2652    2.0977   -5.4907 H   0  0
  -10.3335    3.4132   -4.7364 H   0  0
   -0.6457   -3.3914    0.0807 H   0  0
    0.3805   -2.4723    1.2073 H   0  0
    0.8082   -2.5580   -0.5182 H   0  0
   -1.0913   -1.5961   -3.5019 H   0  0
   -0.0504   -2.4771   -2.3585 H   0  0
    0.1313   -0.7174   -2.5532 H   0  0
   -2.1136    1.1164   -4.0967 H   0  0
   -3.4092    0.2362   -4.9415 H   0  0
   -2.0428   -0.6567   -4.2320 H   0  0
   -4.5168   -2.5325   -5.1038 H   0  0
   -4.4222   -0.7813   -5.4059 H   0  0
   -5.9058   -1.6758   -5.8136 H   0  0
  -10.1191   -0.6307   -6.0418 H   0  0
   -8.8224   -1.6113   -6.7673 H   0  0
   -7.5711    1.0857   -1.9788 H   0  0
   -6.1279    0.2037   -1.4253 H   0  0
   -7.6093   -0.6886   -1.8459 H   0  0
   -9.6624   -3.5084   -5.6237 H   0  0
  1  2  1  0
  2  3  1  0
  3  4  1  0
  4  5  1  0
  5  6  1  0
  1  6  1  0
  8  9  1  0
  9 10  1  0
  7 10  1  0
  5  8  1  0
 11 12  1  0
 13 14  1  0
 11 14  1  0
 12  7  1  0
 10 13  1  0
 16 17  1  0
 17 18  1  0
 15 18  1  0
 13 16  1  0
 15 14  1  0
 19 20  1  0
 21 22  1  0
 19 22  1  0
 20 15  1  0
 18 21  1  0
 19 23  1  0
 19 24  1  0
  7  6  1  0
  4 26  1  0
  5 27  1  0
  7 28  1  0
 13 29  1  0
 14 31  1  0
 18 30  1  0
  6 32  1  0
 10 33  1  0
 15 34  1  0
  3 25  2  0
 30 35  1  0
  1 36  1  0
  1 37  1  0
  2 38  1  0
  2 39  1  0
  4 40  1  0
  8 41  1  0
  8 42  1  0
  9 43  1  0
  9 44  1  0
 11 45  1  0
 11 46  1  0
 12 47  1  0
 12 48  1  0
 16 49  1  0
 16 50  1  0
 17 51  1  0
 17 52  1  0
 20 53  1  0
 20 54  1  0
 21 55  1  0
 21 56  1  0
 22 57  1  0
 22 58  1  0
 23 59  1  0
 23 60  1  0
 23 61  1  0
 24 62  1  0
 24 63  1  0
 24 64  1  0
 26 65  1  0
 26 66  1  0
 26 67  1  0
 27 68  1  0
 27 69  1  0
 27 70  1  0
 28 71  1  0
 28 72  1  0
 28 73  1  0
 29 74  1  0
 29 75  1  0
 29 76  1  0
 30 77  1  0
 30 78  1  0
 31 79  1  0
 31 80  1  0
 31 81  1  0
 35 82  1  0
M  END
> <Name>
FLF2019_TM06

> <Clean Energy>
56.3133

$$$$
FLF2019_TM08
  SciTegic12132405553D

101105  0  0  0  0            999 V2000
   -2.4640  -10.8862    2.5304 C   0  0
   -3.7618  -11.4158    1.8845 C   0  0
   -4.8072  -10.2913    1.9809 C   0  0  1  0  0  0
   -4.3627   -9.0511    1.1525 C   0  0
   -2.9484   -8.6357    1.4800 C   0  0
   -1.8933   -9.7051    1.7207 C   0  0  1  0  0  0
   -0.6165   -9.1184    2.4084 C   0  0  2  0  0  0
   -2.6251   -7.3366    1.4111 C   0  0
   -1.2284   -6.8126    1.6989 C   0  0
   -0.1385   -7.9053    1.6086 C   0  0  1  0  0  0
    1.7771   -9.6152    3.1119 C   0  0
    0.5035  -10.2187    2.4517 C   0  0
    1.1616   -7.3739    2.2366 C   0  0  1  0  0  0
    2.2625   -8.3924    2.2747 C   0  0  1  0  0  0
    3.3173   -7.4471    2.9373 C   0  0  2  0  0  0
    1.8026   -6.2007    1.4635 C   0  0
    3.2867   -6.2096    1.9911 C   0  0
    4.7961   -7.9402    3.1875 C   0  0  2  0  0  0
    4.9050   -9.1370    4.1662 C   0  0
    5.5970   -6.7674    3.7868 C   0  0
    7.0778   -7.1831    3.9883 C   0  0
    8.0359   -6.0811    4.6046 C   0  0  2  0  0  0
    8.3231   -4.8203    3.6639 C   0  0
    8.9329   -5.2703    2.3111 C   0  0
    7.1221   -3.8757    3.3995 C   0  0
    9.3859   -6.7862    4.8924 C   0  0
   10.3569   -5.8251    5.6208 C   0  0
    2.7051   -8.8373    0.8461 C   0  0
    0.9771   -7.0818    3.2797 H   0  0
    0.0444   -8.1997    0.5747 H   0  0
   -1.5413  -10.2756    0.3074 C   0  0
   -0.8417   -8.7788    3.4283 H   0  0
   -6.0867  -10.7499    1.5221 O   0  0
   -6.8279   -7.4414    5.1425 O   0  0
   -8.1313   -7.8737    4.7463 C   0  0
   -8.1058   -8.2658    3.2605 C   0  0  1  0  0  0
   -7.1522   -9.3342    3.0654 O   0  0
   -7.0650   -9.7153    1.6733 C   0  0  2  0  0  0
   -8.4309  -10.2335    1.1815 C   0  0  2  0  0  0
   -8.3419  -10.6058   -0.1947 O   0  0
   -9.4609   -9.1136    1.3490 C   0  0  1  0  0  0
  -10.7464   -9.5631    0.9164 O   0  0
   -9.5117   -8.7294    2.8300 C   0  0  2  0  0  0
  -10.4523   -7.6710    3.0215 O   0  0
   -2.6802  -10.5525    3.5453 H   0  0
   -1.7266  -11.6884    2.5605 H   0  0
   -3.5824  -11.6707    0.8401 H   0  0
   -4.1122  -12.2985    2.4195 H   0  0
   -4.9004   -9.9942    3.0255 H   0  0
   -4.4220   -9.2957    0.0920 H   0  0
   -5.0340   -8.2210    1.3726 H   0  0
   -3.4010   -6.6224    1.1354 H   0  0
   -0.9959   -6.0306    0.9760 H   0  0
   -1.2162   -6.3933    2.7050 H   0  0
    1.5427   -9.2918    4.1261 H   0  0
    2.5630  -10.3698    3.1431 H   0  0
    0.7361  -10.5440    1.4378 H   0  0
    0.1569  -11.0706    3.0367 H   0  0
    2.9126   -7.1314    3.8989 H   0  0
    1.3077   -5.2582    1.6981 H   0  0
    1.7669   -6.3725    0.3877 H   0  0
    3.9933   -6.3277    1.1696 H   0  0
    3.5133   -5.2939    2.5372 H   0  0
    5.2415   -8.2217    2.2333 H   0  0
    4.3468   -9.9844    3.7682 H   0  0
    4.4927   -8.8537    5.1347 H   0  0
    5.9520   -9.4159    4.2849 H   0  0
    5.5507   -5.9152    3.1088 H   0  0
    5.1659   -6.4907    4.7490 H   0  0
    7.0932   -8.0467    4.6532 H   0  0
    7.4790   -7.4660    3.0151 H   0  0
    7.6123   -5.7308    5.5459 H   0  0
    9.0846   -4.2236    4.1661 H   0  0
    9.1199   -4.3961    1.6875 H   0  0
    8.2367   -5.9368    1.8019 H   0  0
    9.8713   -5.7948    2.4914 H   0  0
    7.4375   -3.0592    2.7501 H   0  0
    6.7638   -3.4693    4.3454 H   0  0
    6.3197   -4.4338    2.9171 H   0  0
    9.8336   -7.1014    3.9499 H   0  0
    9.2075   -7.6591    5.5204 H   0  0
   11.2991   -6.3376    5.8144 H   0  0
    9.9151   -5.5088    6.5658 H   0  0
   10.5410   -4.9513    4.9958 H   0  0
    3.5037   -9.5748    0.9258 H   0  0
    3.0651   -7.9713    0.2906 H   0  0
    1.8561   -9.2770    0.3226 H   0  0
   -0.7842  -11.0534    0.4072 H   0  0
   -1.1568   -9.4739   -0.3232 H   0  0
   -2.4371  -10.6977   -0.1481 H   0  0
   -6.1404   -8.2215    4.9966 H   0  0
   -8.4268   -8.7352    5.3451 H   0  0
   -8.8450   -7.0637    4.8969 H   0  0
   -7.8103   -7.4031    2.6633 H   0  0
   -6.7712   -8.8500    1.0791 H   0  0
   -8.7298  -11.0972    1.7755 H   0  0
   -8.0621   -9.7706   -0.7663 H   0  0
   -9.1590   -8.2490    0.7580 H   0  0
  -10.6987   -9.8396   -0.0954 H   0  0
   -9.8089   -9.5947    3.4225 H   0  0
  -10.1605   -6.8361    2.4556 H   0  0
  1  2  1  0
  2  3  1  0
  3  4  1  0
  4  5  1  0
  5  6  1  0
  1  6  1  0
  8  9  1  0
  9 10  1  0
  7 10  1  0
  7  6  1  0
 11 12  1  0
 13 14  1  0
 11 14  1  0
 12  7  1  0
 10 13  1  0
 16 17  1  0
 15 17  1  0
 15 14  1  0
 13 16  1  0
 18 20  1  0
 20 21  1  0
 21 22  1  0
 22 23  1  0
 23 24  1  0
 23 25  1  0
 26 27  1  0
 22 26  1  0
 15 18  1  0
 14 28  1  0
 13 29  1  0
 10 30  1  0
  6 31  1  0
  5  8  2  0
  7 32  1  0
 18 19  1  0
  3 33  1  0
 34 35  1  0
 36 35  1  0
 36 37  1  0
 37 38  1  0
 38 39  1  0
 39 40  1  0
 39 41  1  0
 41 42  1  0
 41 43  1  0
 36 43  1  0
 43 44  1  0
 38 33  1  0
  1 45  1  0
  1 46  1  0
  2 47  1  0
  2 48  1  0
  3 49  1  0
  4 50  1  0
  4 51  1  0
  8 52  1  0
  9 53  1  0
  9 54  1  0
 11 55  1  0
 11 56  1  0
 12 57  1  0
 12 58  1  0
 15 59  1  0
 16 60  1  0
 16 61  1  0
 17 62  1  0
 17 63  1  0
 18 64  1  0
 19 65  1  0
 19 66  1  0
 19 67  1  0
 20 68  1  0
 20 69  1  0
 21 70  1  0
 21 71  1  0
 22 72  1  0
 23 73  1  0
 24 74  1  0
 24 75  1  0
 24 76  1  0
 25 77  1  0
 25 78  1  0
 25 79  1  0
 26 80  1  0
 26 81  1  0
 27 82  1  0
 27 83  1  0
 27 84  1  0
 28 85  1  0
 28 86  1  0
 28 87  1  0
 31 88  1  0
 31 89  1  0
 31 90  1  0
 34 91  1  0
 35 92  1  0
 35 93  1  0
 36 94  1  0
 38 95  1  0
 39 96  1  0
 40 97  1  0
 41 98  1  0
 42 99  1  0
 43100  1  0
 44101  1  0
M  END
> <Name>
FLF2019_TM08

> <Clean Energy>
52.0298

$$$$
FLF2019_TM09
  SciTegic12132405553D

 26 25  0  0  0  0            999 V2000
   -3.4091    0.6650   -0.0520 C   0  0
   -2.1603   -0.2326   -0.0297 C   0  0  1  0  0  0
   -0.9006    0.6461   -0.0123 C   0  0  2  0  0  0
    0.3439   -0.2532    0.0137 C   0  0  2  0  0  0
    1.6036    0.6254    0.0311 C   0  0  1  0  0  0
    2.8524   -0.2722    0.0534 C   0  0
   -2.1829   -1.0528    1.1402 O   0  0
   -0.9128    1.4753    1.1514 O   0  0
    0.3561   -1.0824   -1.1500 O   0  0
    1.6262    1.4457   -1.1388 O   0  0
    4.0249    0.5450    0.0670 O   0  0
   -4.5816   -0.1521   -0.0656 O   0  0
   -3.4176    1.2980    0.8353 H   0  0
   -3.3914    1.2902   -0.9448 H   0  0
   -2.1507   -0.8649   -0.9174 H   0  0
   -0.8799    1.2712   -0.9050 H   0  0
    0.3232   -0.8783    0.9064 H   0  0
    1.5940    1.2578    0.9188 H   0  0
    2.8347   -0.8973    0.9462 H   0  0
    2.8609   -0.9052   -0.8339 H   0  0
   -2.1905   -0.4435    1.9954 H   0  0
   -1.7656    2.0877    1.1364 H   0  0
   -0.5072   -1.6799   -1.1637 H   0  0
    1.6357    0.8364   -1.9939 H   0  0
    4.0422    1.1476   -0.7927 H   0  0
   -4.5737   -0.7623   -0.9201 H   0  0
  2  1  1  0
  3  2  1  0
  3  4  1  0
  4  5  1  0
  5  6  1  0
  2  7  1  0
  3  8  1  0
  4  9  1  0
  5 10  1  0
  6 11  1  0
  1 12  1  0
  1 13  1  0
  1 14  1  0
  2 15  1  0
  3 16  1  0
  4 17  1  0
  5 18  1  0
  6 19  1  0
  6 20  1  0
  7 21  1  0
  8 22  1  0
  9 23  1  0
 10 24  1  0
 11 25  1  0
 12 26  1  0
M  END
> <Name>
FLF2019_TM09

> <Clean Energy>
-1.75887

$$$$
FLF2019_TM10
  SciTegic12132405553D

 93 98  0  0  0  0            999 V2000
    0.2709    7.8008   -0.2450 C   0  0
   -0.1048    8.8278   -1.0038 C   0  0
    0.0009    8.7371   -2.4575 C   0  0
    0.4796    7.6309   -3.0213 C   0  0
    0.8999    6.5001   -2.1819 C   0  0
    0.7942    6.5814   -0.8639 C   0  0
    1.1662    5.5466   -0.0794 O   0  0
    1.4210    5.2902   -2.7802 C   0  0
    1.7844    4.1293   -1.8833 C   0  0
    1.6436    4.3471   -0.5553 C   0  0
    2.2125    2.8675    2.8761 C   0  0
    1.7783    3.7150    1.7687 C   0  0
    2.0388    3.3756    0.5061 C   0  0
    2.8013    2.1435    0.2431 C   0  0
    3.2207    1.3875    1.2574 C   0  0
    2.9070    1.7609    2.6314 C   0  0
    1.5140    5.2565   -4.0036 O   0  0
   -0.6013    9.9848   -0.4136 O   0  0
    0.5628    7.5493   -4.4003 O   0  0
    3.9701    0.2484    1.0138 O   0  0
    3.3355    0.9600    3.6840 O   0  0
    2.2477    2.8008   -2.3356 O   0  0
    2.4282    5.3090   -6.5727 O   0  0
    2.1896    3.9767   -7.0642 C   0  0
    2.7237    2.9981   -6.0143 C   0  0  1  0  0  0
    2.0785    3.2343   -4.7507 O   0  0
    2.6959    2.4834   -3.7095 C   0  0  2  0  0  0
    2.4317    0.9644   -4.0023 C   0  0  2  0  0  0
    2.9403    0.1270   -2.9035 O   0  0
    3.0806    0.6356   -5.4033 C   0  0  1  0  0  0
    2.8551   -0.7108   -5.8406 O   0  0
    2.4824    1.5618   -6.4559 C   0  0  2  0  0  0
    3.1179    1.3227   -7.7131 O   0  0
    3.3115    6.1503   -8.6015 O   0  0
    4.6376    6.3437   -8.0202 C   0  0  2  0  0  0
    4.7542    7.7511   -7.4037 C   0  0  1  0  0  0
    3.6795    7.8996   -6.3240 C   0  0  2  0  0  0
    2.3140    7.7013   -6.9867 C   0  0  2  0  0  0
    2.2573    6.2886   -7.6062 C   0  0  2  0  0  0
    2.1326    8.6838   -8.0089 O   0  0
    3.7530    9.2025   -5.7424 O   0  0
    6.0485    7.9207   -6.8220 O   0  0
    5.7091    6.1737   -9.1105 C   0  0
    1.1454   -1.4464   -3.2116 O   0  0
    0.4287   -1.0638   -2.0058 C   0  0  2  0  0  0
    0.8827   -1.9390   -0.8298 C   0  0  1  0  0  0
    2.3888   -1.7458   -0.6353 C   0  0  2  0  0  0
    3.1061   -2.1569   -1.9233 C   0  0  2  0  0  0
    2.5888   -1.2772   -3.0821 C   0  0  2  0  0  0
    2.8047   -3.5276   -2.1968 O   0  0
    2.8399   -2.5548    0.4515 O   0  0
    0.1873   -1.5510    0.3566 O   0  0
   -1.0829   -1.2475   -2.2268 C   0  0
    0.1887    7.8677    0.8398 H   0  0
   -0.3121    9.5751   -3.0804 H   0  0
    1.9672    3.1421    3.9021 H   0  0
    1.2346    4.6364    1.9771 H   0  0
    3.0230    1.8494   -0.7827 H   0  0
   -1.4615    9.7533    0.1424 H   0  0
   -0.3954    7.6568   -4.8162 H   0  0
    3.4156   -0.4152    0.4181 H   0  0
    2.9253   -0.0012    3.5825 H   0  0
    1.1209    3.8195   -7.2102 H   0  0
    2.7115    3.8297   -8.0098 H   0  0
    3.7959    3.1560   -5.8980 H   0  0
    3.7711    2.6550   -3.7617 H   0  0
    1.3551    0.8124   -4.0791 H   0  0
    4.1544    0.8132   -5.3457 H   0  0
    3.2646   -1.3794   -5.1421 H   0  0
    1.4115    1.3779   -6.5432 H   0  0
    4.1476    1.5090   -7.6264 H   0  0
    4.7986    5.5981   -7.2416 H   0  0
    4.6003    8.5028   -8.1779 H   0  0
    3.8268    7.1439   -5.5525 H   0  0
    1.5274    7.8034   -6.2390 H   0  0
    1.2887    6.1431   -8.0843 H   0  0
    2.1793    9.6433   -7.5850 H   0  0
    4.6999    9.3404   -5.3100 H   0  0
    6.1925    7.2008   -6.0714 H   0  0
    6.6976    6.3184   -8.6748 H   0  0
    5.5478    6.9109   -9.8971 H   0  0
    5.6421    5.1713   -9.5334 H   0  0
    0.6360   -0.0181   -1.7788 H   0  0
    0.6736   -2.9857   -1.0506 H   0  0
    2.5971   -0.6976   -0.4206 H   0  0
    4.1822   -2.0274   -1.8084 H   0  0
    3.0534   -1.6266   -4.0041 H   0  0
    3.1342   -4.1250   -1.3986 H   0  0
    2.3366   -2.2747    1.3295 H   0  0
    0.3955   -0.5445    0.5717 H   0  0
   -1.6203   -0.9608   -1.3229 H   0  0
   -1.2925   -2.2920   -2.4576 H   0  0
   -1.4081   -0.6201   -3.0567 H   0  0
  1  2  2  0
  2  3  1  0
  3  4  2  0
  4  5  1  0
  5  6  2  0
  1  6  1  0
  8  9  1  0
  7 10  1  0
  5  8  1  0
  7  6  1  0
 11 12  1  0
 12 13  2  0
 13 14  1  0
 14 15  2  0
 15 16  1  0
 11 16  2  0
 10 13  1  0
  9 10  2  0
  8 17  2  0
  2 18  1  0
  4 19  1  0
 15 20  1  0
 16 21  1  0
  9 22  1  0
 23 24  1  0
 25 24  1  0
 25 26  1  0
 26 27  1  0
 27 28  1  0
 28 29  1  0
 28 30  1  0
 30 31  1  0
 30 32  1  0
 25 32  1  0
 32 33  1  0
 27 22  1  0
 34 35  1  0
 35 36  1  0
 36 37  1  0
 37 38  1  0
 38 39  1  0
 34 39  1  0
 38 40  1  0
 37 41  1  0
 36 42  1  0
 35 43  1  0
 39 23  1  0
 44 45  1  0
 45 46  1  0
 46 47  1  0
 47 48  1  0
 48 49  1  0
 44 49  1  0
 48 50  1  0
 47 51  1  0
 46 52  1  0
 45 53  1  0
 49 29  1  0
  1 54  1  0
  3 55  1  0
 11 56  1  0
 12 57  1  0
 14 58  1  0
 18 59  1  0
 19 60  1  0
 20 61  1  0
 21 62  1  0
 24 63  1  0
 24 64  1  0
 25 65  1  0
 27 66  1  0
 28 67  1  0
 30 68  1  0
 31 69  1  0
 32 70  1  0
 33 71  1  0
 35 72  1  0
 36 73  1  0
 37 74  1  0
 38 75  1  0
 39 76  1  0
 40 77  1  0
 41 78  1  0
 42 79  1  0
 43 80  1  0
 43 81  1  0
 43 82  1  0
 45 83  1  0
 46 84  1  0
 47 85  1  0
 48 86  1  0
 49 87  1  0
 50 88  1  0
 51 89  1  0
 52 90  1  0
 53 91  1  0
 53 92  1  0
 53 93  1  0
M  END
> <Name>
FLF2019_TM10

> <Clean Energy>
13.644

$$$$
FLF2019_TM12
  DSViewer          3D                             0

 67 72  0  0  0  0  0  0  0  0999 V2000
   -0.5423   -3.4894   -5.5411 C   0  0
   -0.2659   -4.5959   -6.2338 C   0  0
   -0.6167   -5.9097   -5.7100 C   0  0
   -1.2239   -6.0250   -4.5369 C   0  0
   -1.5283   -4.8444   -3.7428 C   0  0
   -1.2097   -3.6193   -4.1977 C   0  0
   -1.4955   -2.5062   -3.4385 O   0  0
   -2.2005   -5.0223   -2.4141 C   0  0
   -1.8592   -3.8474   -1.5119 C   0  0  2  0  0  0
   -2.2342   -2.5562   -2.2440 C   0  0  1  0  0  0
   -2.4791    0.4086    0.1335 C   0  0
   -2.8229   -0.7469   -0.6979 C   0  0
   -1.8745   -1.3764   -1.3875 C   0  0
   -0.4835   -0.9165   -1.3051 C   0  0
   -0.1701    0.1272   -0.5415 C   0  0
   -1.2158    0.8244    0.2081 C   0  0
    1.1488   -0.3356   -4.4839 O   0  0
   -0.1766   -0.1074   -4.7822 C   0  0
   -0.8641   -0.9405   -5.5744 C   0  0
   -0.1936   -2.1341   -6.2076 C   0  0  1  0  0  0
    1.3231   -1.8813   -6.2986 C   0  0  2  0  0  0
    1.8195   -1.4935   -4.9164 C   0  0  1  0  0  0
   -0.8508    1.0464   -4.1844 C   0  0
   -2.1442    1.2606   -4.4118 C   0  0
   -2.8983    0.3448   -5.2656 C   0  0
   -2.2903   -0.7006   -5.8207 C   0  0
    5.5638   -1.8913   -5.4672 C   0  0
    4.1228   -2.1524   -5.4413 C   0  0
    3.2921   -1.2412   -4.9376 C   0  0
    3.8161    0.0230   -4.4183 C   0  0
    5.1245    0.2662   -4.4543 C   0  0
    6.0402   -0.7378   -5.0007 C   0  0
   -2.7788    2.3540   -3.8338 O   0  0
    7.4078   -0.4876   -5.0300 O   0  0
   -0.8902    1.9213    0.9981 O   0  0
    1.1503    0.5540   -0.4555 O   0  0
   -0.4518   -3.8631   -1.2445 O   0  0
   -1.5592   -7.2853   -4.0527 O   0  0
    0.3270   -4.5100   -7.4913 O   0  0
   -3.0088   -1.5711   -6.6320 O   0  0
    1.5731   -0.7620   -7.1555 O   0  0
   -0.3784   -6.8036   -6.2864 H   0  0
   -1.8541   -5.9471   -1.9528 H   0  0
   -3.2801   -5.0690   -2.5567 H   0  0
   -2.4164   -3.9210   -0.5779 H   0  0
   -3.3018   -2.5474   -2.4637 H   0  0
   -3.2575    0.9287    0.6918 H   0  0
   -3.8556   -1.0914   -0.7519 H   0  0
    0.2941   -1.4306   -1.8701 H   0  0
   -0.5610   -2.1888   -7.2324 H   0  0
    1.8419   -2.7689   -6.6608 H   0  0
    1.6083   -2.3067   -4.2219 H   0  0
   -0.2905    1.7333   -3.5500 H   0  0
   -3.9589    0.5182   -5.4476 H   0  0
    6.2463   -2.6406   -5.8682 H   0  0
    3.7309   -3.0909   -5.8335 H   0  0
    3.1350    0.7654   -4.0022 H   0  0
    5.5140    1.2119   -4.0772 H   0  0
   -2.7130    2.2851   -2.7881 H   0  0
    7.5952    0.3684   -5.6085 H   0  0
   -0.2011    1.6304    1.7350 H   0  0
    1.7463   -0.2238   -0.0784 H   0  0
   -0.1956   -4.7631   -0.7680 H   0  0
   -2.2128   -7.7569   -4.7257 H   0  0
   -0.2949   -3.9612   -8.1353 H   0  0
   -3.7935   -1.9977   -6.0799 H   0  0
    1.1952   -0.9632   -8.1142 H   0  0
  1  2  2  0  0  0
  2  3  1  0  0  0
  3  4  2  0  0  0
  4  5  1  0  0  0
  5  6  2  0  0  0
  1  6  1  0  0  0
  8  9  1  0  0  0
  9 10  1  0  0  0
  5  8  1  0  0  0
  7  6  1  0  0  0
 11 12  1  0  0  0
 12 13  2  0  0  0
 13 14  1  0  0  0
 14 15  2  0  0  0
 15 16  1  0  0  0
 11 16  2  0  0  0
 17 18  1  0  0  0
 19 20  1  0  0  0
 20 21  1  0  0  0
 21 22  1  0  0  0
 17 22  1  0  0  0
 23 24  2  0  0  0
 24 25  1  0  0  0
 25 26  2  0  0  0
 23 18  1  0  0  0
 26 19  1  0  0  0
 19 18  2  0  0  0
 27 28  1  0  0  0
 28 29  2  0  0  0
 29 30  1  0  0  0
 30 31  2  0  0  0
 31 32  1  0  0  0
 27 32  2  0  0  0
 24 33  1  0  0  0
 32 34  1  0  0  0
 16 35  1  0  0  0
 15 36  1  0  0  0
  9 37  1  0  0  0
  4 38  1  0  0  0
  2 39  1  0  0  0
 26 40  1  0  0  0
  7 10  1  0  0  0
 20  1  1  0  0  0
 10 13  1  0  0  0
 22 29  1  0  0  0
 21 41  1  0  0  0
  3 42  1  0  0  0
  8 43  1  0  0  0
  8 44  1  0  0  0
  9 45  1  0  0  0
 10 46  1  0  0  0
 11 47  1  0  0  0
 12 48  1  0  0  0
 14 49  1  0  0  0
 20 50  1  0  0  0
 21 51  1  0  0  0
 22 52  1  0  0  0
 23 53  1  0  0  0
 25 54  1  0  0  0
 27 55  1  0  0  0
 28 56  1  0  0  0
 30 57  1  0  0  0
 31 58  1  0  0  0
 33 59  1  0  0  0
 34 60  1  0  0  0
 35 61  1  0  0  0
 36 62  1  0  0  0
 37 63  1  0  0  0
 38 64  1  0  0  0
 39 65  1  0  0  0
 40 66  1  0  0  0
 41 67  1  0  0  0
M  END
> <Clean Energy>
29.9797

$$$$
FLF2019_TM14
  SciTegic12132405553D

 82 86  0  0  0  0            999 V2000
   -9.1011   -0.0607   -1.0512 C   0  0
  -10.5781   -0.5158   -1.2252 C   0  0
  -10.7501   -2.0123   -1.0268 C   0  0
   -9.6785   -2.9490   -1.5170 C   0  0  1  0  0  0
   -8.2551   -2.4784   -1.1775 C   0  0  2  0  0  0
   -8.0914   -0.9996   -1.7564 C   0  0  2  0  0  0
   -6.6210   -0.4004   -1.6242 C   0  0  1  0  0  0
   -7.2371   -3.3847   -1.9121 C   0  0
   -5.7640   -2.8677   -1.7717 C   0  0
   -5.6740   -1.4473   -2.4212 C   0  0  2  0  0  0
   -5.0097    1.4877   -2.3910 C   0  0
   -6.5146    0.9662   -2.3597 C   0  0
   -4.1301   -0.9517   -2.5449 C   0  0  2  0  0  0
   -4.1205    0.5045   -3.2396 C   0  0  2  0  0  0
   -2.5056    1.0405   -3.2688 C   0  0  1  0  0  0
   -3.2960   -1.9042   -3.4567 C   0  0
   -1.8094   -1.4184   -3.4465 C   0  0
   -1.5584    0.0238   -4.0245 C   0  0  1  0  0  0
   -2.1971    2.7635   -5.4595 C   0  0
   -2.1116    2.5211   -3.8697 C   0  0
   -1.7511    0.1620   -5.6364 C   0  0
   -1.3332    1.6561   -6.1546 C   0  0  2  0  0  0
   -3.6088    2.8071   -6.0273 C   0  0
   -1.6143    4.1414   -5.8173 C   0  0
  -11.8636   -2.4639   -0.7403 O   0  0
   -9.9549   -4.4014   -1.0775 C   0  0
   -8.0775   -2.6427    0.3730 C   0  0
   -6.2596   -0.0992   -0.1179 C   0  0
   -3.4194   -0.9687   -1.1388 C   0  0
   -0.0831    0.3245   -3.6624 C   0  0
   -4.8449    0.3195   -4.6137 C   0  0
   -8.3080   -1.0595   -2.8317 H   0  0
   -6.0832   -1.5296   -3.4263 H   0  0
   -2.2266    1.0501   -2.2174 H   0  0
    0.0490    1.9045   -5.8924 O   0  0
   -8.9947    0.9403   -1.4691 H   0  0
   -8.8682   -0.0372    0.0134 H   0  0
  -11.1940    0.0073   -0.4936 H   0  0
  -10.9082   -0.2559   -2.2310 H   0  0
   -9.7471   -2.9441   -2.6048 H   0  0
   -7.4971   -3.4163   -2.9701 H   0  0
   -7.2966   -4.3889   -1.4925 H   0  0
   -5.4941   -2.8078   -0.7173 H   0  0
   -5.0846   -3.5497   -2.2830 H   0  0
   -4.9804    2.4804   -2.8402 H   0  0
   -4.6231    1.5373   -1.3731 H   0  0
   -7.1338    1.6982   -1.8411 H   0  0
   -6.8712    0.8479   -3.3830 H   0  0
   -3.6860   -1.8749   -4.4741 H   0  0
   -3.3530   -2.9233   -3.0743 H   0  0
   -1.4603   -1.4306   -2.4140 H   0  0
   -1.2231   -2.1224   -4.0372 H   0  0
   -1.0835    2.7246   -3.5700 H   0  0
   -2.7776    3.2446   -3.3996 H   0  0
   -2.7958   -0.0220   -5.8868 H   0  0
   -1.1221   -0.5759   -6.1343 H   0  0
   -1.4985    1.7101   -7.2307 H   0  0
   -3.5632    2.9744   -7.1034 H   0  0
   -4.1651    3.6182   -5.5573 H   0  0
   -4.1105    1.8601   -5.8283 H   0  0
   -1.6773    4.2945   -6.8946 H   0  0
   -0.5710    4.1875   -5.5048 H   0  0
   -2.1809    4.9200   -5.3065 H   0  0
   -9.1620   -5.0509   -1.4483 H   0  0
  -10.9119   -4.7287   -1.4841 H   0  0
   -9.9865   -4.4524    0.0109 H   0  0
   -7.0773   -2.3193    0.6609 H   0  0
   -8.2130   -3.6893    0.6458 H   0  0
   -8.8187   -2.0338    0.8906 H   0  0
   -6.9732    0.6157    0.2915 H   0  0
   -5.2544    0.3186   -0.0615 H   0  0
   -6.3012   -1.0237    0.4580 H   0  0
   -3.4590   -1.9755   -0.7233 H   0  0
   -3.9278   -0.2782   -0.4658 H   0  0
   -2.3791   -0.6641   -1.2533 H   0  0
    0.1861    1.3158   -4.0269 H   0  0
    0.5642   -0.4204   -4.1252 H   0  0
    0.0401    0.2902   -2.5799 H   0  0
   -4.8743    1.2731   -5.1408 H   0  0
   -5.8624   -0.0327   -4.4440 H   0  0
   -4.3035   -0.4109   -5.2150 H   0  0
    0.2272    1.8384   -4.8597 H   0  0
  1  2  1  0
  2  3  1  0
  4  3  1  0
  5  4  1  0
  5  6  1  0
  6  1  1  0
  8  9  1  0
 10  9  1  0
  7 10  1  0
  5  8  1  0
 11 12  1  0
 13 14  1  0
 14 11  1  0
  7 12  1  0
 10 13  1  0
 16 17  1  0
 18 17  1  0
 15 18  1  0
 13 16  1  0
 14 15  1  0
 19 20  1  0
 21 22  1  0
 19 22  1  0
 15 20  1  0
 18 21  1  0
 19 23  1  0
 19 24  1  0
  3 25  2  0
  6  7  1  0
  4 26  1  0
  5 27  1  0
  7 28  1  0
 13 29  1  0
 14 31  1  0
 18 30  1  0
  6 32  1  0
 10 33  1  0
 15 34  1  0
 22 35  1  0
  1 36  1  0
  1 37  1  0
  2 38  1  0
  2 39  1  0
  4 40  1  0
  8 41  1  0
  8 42  1  0
  9 43  1  0
  9 44  1  0
 11 45  1  0
 11 46  1  0
 12 47  1  0
 12 48  1  0
 16 49  1  0
 16 50  1  0
 17 51  1  0
 17 52  1  0
 20 53  1  0
 20 54  1  0
 21 55  1  0
 21 56  1  0
 22 57  1  0
 23 58  1  0
 23 59  1  0
 23 60  1  0
 24 61  1  0
 24 62  1  0
 24 63  1  0
 26 64  1  0
 26 65  1  0
 26 66  1  0
 27 67  1  0
 27 68  1  0
 27 69  1  0
 28 70  1  0
 28 71  1  0
 28 72  1  0
 29 73  1  0
 29 74  1  0
 29 75  1  0
 30 76  1  0
 30 77  1  0
 30 78  1  0
 31 79  1  0
 31 80  1  0
 31 81  1  0
 35 82  1  0
M  END
> <Name>
FLF2019_TM14

> <Clean Energy>
63.8588

$$$$
FLF2019_TM15
  SciTegic12132405553D

 82 86  0  0  0  0            999 V2000
   -8.9991    0.2544   -4.6181 C   0  0
   -9.7722   -0.0479   -5.9334 C   0  0
  -10.0747   -1.5275   -6.1001 C   0  0
   -9.0596   -2.5432   -5.6489 C   0  0  1  0  0  0
   -8.4501   -2.2268   -4.2736 C   0  0  2  0  0  0
   -7.8509   -0.7488   -4.3466 C   0  0  2  0  0  0
   -7.0446   -0.3007   -3.0475 C   0  0  1  0  0  0
   -7.2730   -3.1972   -4.0097 C   0  0
   -6.4743   -2.8314   -2.7115 C   0  0
   -5.8647   -1.4019   -2.8917 C   0  0  2  0  0  0
   -5.4052    1.4507   -2.0536 C   0  0
   -6.3607    1.0780   -3.2721 C   0  0
   -4.8138   -1.0547   -1.7026 C   0  0  2  0  0  0
   -4.2183    0.4212   -1.9751 C   0  0  2  0  0  0
   -3.1956    0.7905   -0.6798 C   0  0  1  0  0  0
   -3.6123   -2.0516   -1.6908 C   0  0
   -2.6916   -1.7123   -0.4664 C   0  0
   -2.0364   -0.2850   -0.5037 C   0  0  1  0  0  0
   -1.2081    2.5150   -1.5467 C   0  0
   -2.4473    2.2287   -0.5865 C   0  0
   -0.9071   -0.1198   -1.6058 C   0  0
   -0.2322    1.3022   -1.3634 C   0  0  1  0  0  0
   -1.5422    2.7498   -3.0195 C   0  0
   -0.5064    3.8067   -1.0933 C   0  0
  -10.9918   -1.8802   -6.8489 O   0  0
   -9.6160   -3.9784   -5.7467 C   0  0
   -9.5763   -2.4697   -3.2083 C   0  0
   -8.0108   -0.0976   -1.8165 C   0  0
   -5.4940   -1.1923   -0.2884 C   0  0
   -1.3216   -0.0841    0.8609 C   0  0
   -3.5754    0.3820   -3.4008 C   0  0
   -7.1315   -0.7439   -5.1769 H   0  0
   -5.3169   -1.4038   -3.8325 H   0  0
   -3.8499    0.7370    0.1876 H   0  0
    0.9079    1.4868   -2.2036 O   0  0
   -8.5758    1.2565   -4.6867 H   0  0
   -9.7011    0.2122   -3.7853 H   0  0
  -10.7129    0.5025   -5.9208 H   0  0
   -9.1682    0.2832   -6.7783 H   0  0
   -8.2384   -2.4879   -6.3635 H   0  0
   -6.5926   -3.1611   -4.8605 H   0  0
   -7.6694   -4.2069   -3.9035 H   0  0
   -7.1452   -2.8395   -1.8524 H   0  0
   -5.6746   -3.5554   -2.5554 H   0  0
   -5.0052    2.4538   -2.2009 H   0  0
   -5.9743    1.4186   -1.1245 H   0  0
   -7.1293    1.8448   -3.3687 H   0  0
   -5.7703    1.0372   -4.1874 H   0  0
   -3.0442   -1.9525   -2.6157 H   0  0
   -3.9833   -3.0724   -1.5992 H   0  0
   -3.2936   -1.7843    0.4394 H   0  0
   -1.8908   -2.4509   -0.4308 H   0  0
   -2.0904    2.3377    0.4376 H   0  0
   -3.1962    2.9930   -0.7941 H   0  0
   -1.3465   -0.1615   -2.6024 H   0  0
   -0.1637   -0.9103   -1.5026 H   0  0
    0.1192    1.3223   -0.3318 H   0  0
   -0.6234    2.9341   -3.5761 H   0  0
   -2.2007    3.6137   -3.1100 H   0  0
   -2.0411    1.8692   -3.4243 H   0  0
    0.3425    4.0081   -1.7465 H   0  0
   -0.1555    3.6895   -0.0680 H   0  0
   -1.2085    4.6390   -1.1437 H   0  0
   -8.8572   -4.6863   -5.4133 H   0  0
   -9.8846   -4.1948   -6.7807 H   0  0
  -10.4998   -4.0698   -5.1153 H   0  0
   -9.1874   -2.2566   -2.2126 H   0  0
   -9.9037   -3.5083   -3.2553 H   0  0
  -10.4212   -1.8130   -3.4159 H   0  0
   -8.7505    0.6661   -2.0567 H   0  0
   -7.4324    0.2180   -0.9482 H   0  0
   -8.5179   -1.0363   -1.5932 H   0  0
   -5.8745   -2.2062   -0.1647 H   0  0
   -6.3184   -0.4835   -0.2106 H   0  0
   -4.7604   -0.9827    0.4901 H   0  0
   -0.8491    0.8979    0.8831 H   0  0
   -0.5621   -0.8551    0.9909 H   0  0
   -2.0513   -0.1539    1.6676 H   0  0
   -3.1552    1.3594   -3.6374 H   0  0
   -4.3379    0.1270   -4.1368 H   0  0
   -2.7846   -0.3679   -3.4227 H   0  0
    1.6186    0.7415   -1.9989 H   0  0
  1  2  1  0
  2  3  1  0
  4  3  1  0
  5  4  1  0
  5  6  1  0
  6  1  1  0
  8  9  1  0
 10  9  1  0
  7 10  1  0
  5  8  1  0
 11 12  1  0
 13 14  1  0
 14 11  1  0
  7 12  1  0
 10 13  1  0
 16 17  1  0
 18 17  1  0
 15 18  1  0
 13 16  1  0
 14 15  1  0
 19 20  1  0
 22 21  1  0
 22 19  1  0
 15 20  1  0
 18 21  1  0
 19 23  1  0
 19 24  1  0
  3 25  2  0
  6  7  1  0
  4 26  1  0
  5 27  1  0
  7 28  1  0
 13 29  1  0
 14 31  1  0
 18 30  1  0
  6 32  1  0
 10 33  1  0
 15 34  1  0
 22 35  1  0
  1 36  1  0
  1 37  1  0
  2 38  1  0
  2 39  1  0
  4 40  1  0
  8 41  1  0
  8 42  1  0
  9 43  1  0
  9 44  1  0
 11 45  1  0
 11 46  1  0
 12 47  1  0
 12 48  1  0
 16 49  1  0
 16 50  1  0
 17 51  1  0
 17 52  1  0
 20 53  1  0
 20 54  1  0
 21 55  1  0
 21 56  1  0
 22 57  1  0
 23 58  1  0
 23 59  1  0
 23 60  1  0
 24 61  1  0
 24 62  1  0
 24 63  1  0
 26 64  1  0
 26 65  1  0
 26 66  1  0
 27 67  1  0
 27 68  1  0
 27 69  1  0
 28 70  1  0
 28 71  1  0
 28 72  1  0
 29 73  1  0
 29 74  1  0
 29 75  1  0
 30 76  1  0
 30 77  1  0
 30 78  1  0
 31 79  1  0
 31 80  1  0
 31 81  1  0
 35 82  1  0
M  END
> <Name>
FLF2019_TM15

> <Clean Energy>
56.9659

$$$$
FLF2019_TM16
  SciTegic12132405553D

 82 86  0  0  0  0            999 V2000
   -9.2145    0.3427   -3.3983 C   0  0
  -10.3391    0.2837   -4.4711 C   0  0
  -10.6988   -1.1417   -4.8550 C   0  0
   -9.6116   -2.1795   -4.9390 C   0  0  1  0  0  0
   -8.6260   -2.1269   -3.7606 C   0  0  2  0  0  0
   -8.0517   -0.6391   -3.6857 C   0  0  2  0  0  0
   -6.8979   -0.4327   -2.6066 C   0  0  1  0  0  0
   -7.4373   -3.0737   -4.0562 C   0  0
   -6.2923   -2.9479   -2.9932 C   0  0
   -5.7396   -1.4848   -3.0319 C   0  0  2  0  0  0
   -5.0155    1.1501   -1.7737 C   0  0
   -6.2879    0.9936   -2.7186 C   0  0
   -4.3850   -1.3425   -2.1471 C   0  0  2  0  0  0
   -3.8724    0.1846   -2.2588 C   0  0  2  0  0  0
   -2.5141    0.3242   -1.2636 C   0  0  1  0  0  0
   -3.2461   -2.2622   -2.6903 C   0  0
   -2.0043   -2.1419   -1.7370 C   0  0
   -1.3663   -0.7085   -1.6565 C   0  0  1  0  0  0
   -0.8395    2.2776   -2.2837 C   0  0  1  0  0  0
   -1.7540    1.7440   -1.0917 C   0  0
   -0.6127   -0.2623   -2.9758 C   0  0
    0.1348    1.1073   -2.6527 C   0  0
   -1.5713    2.8141   -3.5164 C   0  0
   -0.0219    3.4752   -1.7723 C   0  0
  -11.7982   -1.3745   -5.3680 O   0  0
  -10.1936   -3.5879   -5.1767 C   0  0
   -9.3997   -2.6391   -2.4951 C   0  0
   -7.4638   -0.5360   -1.1372 C   0  0
   -4.6288   -1.8026   -0.6604 C   0  0
   -0.2812   -0.7596   -0.5459 C   0  0
   -3.6702    0.4766   -3.7826 C   0  0
   -7.6031   -0.4276   -4.6659 H   0  0
   -5.4869   -1.2652   -4.0679 H   0  0
   -2.8895    0.0624   -0.2766 H   0  0
    0.8594    3.9236   -2.8043 O   0  0
   -8.8143    1.3562   -3.3703 H   0  0
   -9.6464    0.0951   -2.4287 H   0  0
  -11.2279    0.7740   -4.0738 H   0  0
  -10.0004    0.8114   -5.3626 H   0  0
   -9.0313   -1.9379   -5.8295 H   0  0
   -7.0314   -2.8293   -5.0379 H   0  0
   -7.8010   -4.1013   -4.0584 H   0  0
   -6.6863   -3.1661   -2.0006 H   0  0
   -5.4923   -3.6496   -3.2295 H   0  0
   -4.6603    2.1799   -1.8122 H   0  0
   -5.2918    0.8985   -0.7498 H   0  0
   -7.0402    1.7262   -2.4263 H   0  0
   -5.9881    1.1722   -3.7513 H   0  0
   -2.9682   -1.9467   -3.6960 H   0  0
   -3.5902   -3.2962   -2.7154 H   0  0
   -2.3193   -2.4286   -0.7337 H   0  0
   -1.2390   -2.8333   -2.0896 H   0  0
   -1.1161    1.6608   -0.2118 H   0  0
   -2.5211    2.4980   -0.9150 H   0  0
   -1.3298   -0.1144   -3.7833 H   0  0
    0.1116   -1.0229   -3.2672 H   0  0
    0.8097    0.9423   -1.8128 H   0  0
    0.7109    1.4014   -3.5301 H   0  0
   -0.8428    3.1466   -4.2558 H   0  0
   -2.2039    3.6534   -3.2273 H   0  0
   -2.1889    2.0248   -3.9450 H   0  0
    0.5612    3.1724   -0.9025 H   0  0
   -0.6972    4.2842   -1.4940 H   0  0
   -9.3814   -4.3126   -5.2322 H   0  0
  -10.7529   -3.5974   -6.1123 H   0  0
  -10.8585   -3.8504   -4.3538 H   0  0
   -8.7365   -2.6191   -1.6304 H   0  0
   -9.7420   -3.6597   -2.6663 H   0  0
  -10.2588   -1.9947   -2.3084 H   0  0
   -8.2300    0.2247   -0.9880 H   0  0
   -6.6545   -0.3805   -0.4238 H   0  0
   -7.8984   -1.5237   -0.9833 H   0  0
   -4.9720   -2.8371   -0.6513 H   0  0
   -5.3850   -1.1655   -0.2017 H   0  0
   -3.6984   -1.7241   -0.0980 H   0  0
    0.1912    0.2183   -0.4536 H   0  0
    0.4718   -1.5032   -0.8069 H   0  0
   -0.7444   -1.0297    0.4032 H   0  0
   -3.3224    1.5012   -3.9137 H   0  0
   -4.6167    0.3448   -4.3070 H   0  0
   -2.9306   -0.2126   -4.1901 H   0  0
    1.5098    3.1443   -3.0729 H   0  0
  1  2  1  0
  2  3  1  0
  4  3  1  0
  5  4  1  0
  5  6  1  0
  6  1  1  0
  8  9  1  0
 10  9  1  0
  7 10  1  0
  5  8  1  0
 11 12  1  0
 13 14  1  0
 14 11  1  0
  7 12  1  0
 10 13  1  0
 16 17  1  0
 18 17  1  0
 15 18  1  0
 13 16  1  0
 14 15  1  0
 19 20  1  0
 22 21  1  0
 22 19  1  0
 15 20  1  0
 18 21  1  0
  3 25  2  0
  6  7  1  0
  4 26  1  0
  5 27  1  0
  7 28  1  0
 13 29  1  0
 14 31  1  0
 18 30  1  0
  6 32  1  0
 10 33  1  0
 15 34  1  0
 24 35  1  0
 19 24  1  0
 19 23  1  0
  1 36  1  0
  1 37  1  0
  2 38  1  0
  2 39  1  0
  4 40  1  0
  8 41  1  0
  8 42  1  0
  9 43  1  0
  9 44  1  0
 11 45  1  0
 11 46  1  0
 12 47  1  0
 12 48  1  0
 16 49  1  0
 16 50  1  0
 17 51  1  0
 17 52  1  0
 20 53  1  0
 20 54  1  0
 21 55  1  0
 21 56  1  0
 22 57  1  0
 22 58  1  0
 23 59  1  0
 23 60  1  0
 23 61  1  0
 24 62  1  0
 24 63  1  0
 26 64  1  0
 26 65  1  0
 26 66  1  0
 27 67  1  0
 27 68  1  0
 27 69  1  0
 28 70  1  0
 28 71  1  0
 28 72  1  0
 29 73  1  0
 29 74  1  0
 29 75  1  0
 30 76  1  0
 30 77  1  0
 30 78  1  0
 31 79  1  0
 31 80  1  0
 31 81  1  0
 35 82  1  0
M  END
> <Name>
FLF2019_TM16

> <Clean Energy>
56.5766

$$$$
FLF2019_TM17
  SciTegic12132405553D

 80 84  0  0  0  0            999 V2000
   -8.8578   -1.0668   -4.6068 C   0  0
   -9.5991   -1.6445   -5.8460 C   0  0
   -9.4665   -3.1547   -5.9479 C   0  0
   -8.1695   -3.8093   -5.5540 C   0  0  1  0  0  0
   -7.5841   -3.2625   -4.2421 C   0  0  2  0  0  0
   -7.4502   -1.6798   -4.4033 C   0  0  2  0  0  0
   -6.7210   -0.9538   -3.1868 C   0  0  1  0  0  0
   -6.1591   -3.8362   -4.0494 C   0  0
   -5.4132   -3.1913   -2.8309 C   0  0
   -5.2625   -1.6572   -3.0984 C   0  0  2  0  0  0
   -5.6004    1.2450   -2.3784 C   0  0
   -6.4882    0.5513   -3.5038 C   0  0
   -4.2783   -0.9629   -2.0090 C   0  0  2  0  0  0
   -4.1625    0.6079   -2.3699 C   0  0  2  0  0  0
   -3.2047    1.3186   -1.1747 C   0  0  1  0  0  0
   -2.8378   -1.5690   -2.0692 C   0  0
   -1.9691   -0.9204   -0.9332 C   0  0
   -1.7781    0.6319   -1.0601 C   0  0  1  0  0  0
   -1.8609    3.4814   -2.2469 C   0  0
   -2.8988    2.9054   -1.1857 C   0  0
   -0.8325    1.0512   -2.2548 C   0  0
   -0.5658    2.6130   -2.1098 C   0  0
   -1.5341    4.9361   -1.8679 C   0  0
   -2.3339    3.5584   -3.7008 C   0  0
  -10.2905   -3.7943   -6.6096 O   0  0
   -8.2872   -5.3471   -5.5676 C   0  0
   -8.5122   -3.7681   -3.0822 C   0  0
   -7.6151   -0.9786   -1.8868 C   0  0
   -4.7868   -1.2213   -0.5404 C   0  0
   -1.0681    1.1030    0.1840 C   0  0
   -3.6399    0.6898   -3.8426 C   0  0
   -6.8239   -1.5078   -5.2893 H   0  0
   -4.8054   -1.5466   -4.0803 H   0  0
   -3.7532    1.1256   -0.2551 H   0  0
   -0.2071    0.3894    0.7095 O   0  0
   -8.7520    0.0103   -4.7365 H   0  0
   -9.4564   -1.2693   -3.7186 H   0  0
  -10.6564   -1.3902   -5.7714 H   0  0
   -9.1794   -1.1949   -6.7459 H   0  0
   -7.4528   -3.5540   -6.3345 H   0  0
   -5.5807   -3.6466   -4.9536 H   0  0
   -6.2344   -4.9110   -3.8842 H   0  0
   -5.9902   -3.3509   -1.9201 H   0  0
   -4.4278   -3.6441   -2.7214 H   0  0
   -5.5224    2.3123   -2.5853 H   0  0
   -6.0682    1.0962   -1.4052 H   0  0
   -7.4525    1.0566   -3.5577 H   0  0
   -5.9779    0.6379   -4.4630 H   0  0
   -2.3905   -1.3550   -3.0399 H   0  0
   -2.8877   -2.6478   -1.9215 H   0  0
   -2.4514   -1.1261    0.0224 H   0  0
   -0.9838   -1.3863   -0.9513 H   0  0
   -2.5221    3.1654   -0.1964 H   0  0
   -3.8478    3.4129   -1.3586 H   0  0
   -1.3179    0.8412   -3.2079 H   0  0
    0.1084    0.5039   -2.1974 H   0  0
   -0.1279    2.7987   -1.1291 H   0  0
    0.1371    2.9166   -2.8856 H   0  0
   -0.8236    5.3480   -2.5845 H   0  0
   -1.0986    4.9628   -0.8690 H   0  0
   -2.4482    5.5297   -1.8812 H   0  0
   -1.5365    3.9668   -4.3216 H   0  0
   -3.2101    4.2036   -3.7646 H   0  0
   -2.5922    2.5596   -4.0527 H   0  0
   -7.3331   -5.7876   -5.2785 H   0  0
   -8.5528   -5.6829   -6.5701 H   0  0
   -9.0590   -5.6592   -4.8640 H   0  0
   -8.1336   -3.4026   -2.1277 H   0  0
   -8.5239   -4.8580   -3.0745 H   0  0
   -9.5247   -3.3953   -3.2376 H   0  0
   -8.5608   -0.4747   -2.0859 H   0  0
   -7.0946   -0.4666   -1.0774 H   0  0
   -7.8083   -2.0117   -1.5978 H   0  0
   -4.8435   -2.2945   -0.3586 H   0  0
   -5.7753   -0.7794   -0.4146 H   0  0
   -4.0941   -0.7692    0.1693 H   0  0
   -1.3142    2.0717    0.6191 H   0  0
   -3.5436    1.7349   -4.1369 H   0  0
   -4.3442    0.1892   -4.5071 H   0  0
   -2.6672    0.2025   -3.9111 H   0  0
  1  2  1  0
  2  3  1  0
  4  3  1  0
  5  4  1  0
  5  6  1  0
  6  1  1  0
  8  9  1  0
 10  9  1  0
  7 10  1  0
  5  8  1  0
 11 12  1  0
 13 14  1  0
 14 11  1  0
  7 12  1  0
 10 13  1  0
 16 17  1  0
 18 17  1  0
 15 18  1  0
 13 16  1  0
 14 15  1  0
 19 20  1  0
 22 21  1  0
 19 22  1  0
 15 20  1  0
 18 21  1  0
  3 25  2  0
  6  7  1  0
  4 26  1  0
  5 27  1  0
  7 28  1  0
 13 29  1  0
 14 31  1  0
 18 30  1  0
  6 32  1  0
 10 33  1  0
 15 34  1  0
 19 24  1  0
 19 23  1  0
 30 35  2  0
  1 36  1  0
  1 37  1  0
  2 38  1  0
  2 39  1  0
  4 40  1  0
  8 41  1  0
  8 42  1  0
  9 43  1  0
  9 44  1  0
 11 45  1  0
 11 46  1  0
 12 47  1  0
 12 48  1  0
 16 49  1  0
 16 50  1  0
 17 51  1  0
 17 52  1  0
 20 53  1  0
 20 54  1  0
 21 55  1  0
 21 56  1  0
 22 57  1  0
 22 58  1  0
 23 59  1  0
 23 60  1  0
 23 61  1  0
 24 62  1  0
 24 63  1  0
 24 64  1  0
 26 65  1  0
 26 66  1  0
 26 67  1  0
 27 68  1  0
 27 69  1  0
 27 70  1  0
 28 71  1  0
 28 72  1  0
 28 73  1  0
 29 74  1  0
 29 75  1  0
 29 76  1  0
 30 77  1  0
 31 78  1  0
 31 79  1  0
 31 80  1  0
M  END
> <Name>
FLF2019_TM17

> <Clean Energy>
62.3655

$$$$
FLF2019_TM19
  SciTegic12132405553D

 79 83  0  0  0  0            999 V2000
   -7.5014   -1.3994    5.5766 C   0  0
   -8.9482   -1.3693    5.1694 C   0  0
   -9.2040   -2.3693    4.0897 C   0  0
   -8.2379   -2.4958    2.9595 C   0  0  1  0  0  0
   -6.8052   -2.8231    3.5533 C   0  0  2  0  0  0
   -6.4071   -1.5833    4.5011 C   0  0  2  0  0  0
   -4.8896   -1.5871    5.0884 C   0  0  1  0  0  0
   -5.7606   -2.8570    2.4052 C   0  0
   -4.2739   -2.9842    2.8828 C   0  0
   -3.9130   -1.6993    3.7226 C   0  0  2  0  0  0
   -2.9993   -0.0015    6.1344 C   0  0
   -4.5826   -0.2433    5.7916 C   0  0
   -2.2903   -1.6020    4.0562 C   0  0  2  0  0  0
   -2.1194    0.0474    4.7521 C   0  0  2  0  0  0
   -0.4454    0.6740    4.8334 C   0  0  1  0  0  0
   -1.3155   -1.5510    2.9784 C   0  0
    0.2741   -1.4763    3.6629 C   0  0
    0.4928   -0.4858    5.0686 C   0  0  1  0  0  0
    1.6239    1.9026    3.6491 C   0  0
    0.1562    1.4308    3.4589 C   0  0
    1.9879   -0.1068    5.2211 C   0  0
    2.4321    0.6988    4.0318 C   0  0
    1.7117    2.9880    4.7640 C   0  0
    2.1439    2.5201    2.3525 C   0  0
  -10.2310   -3.0562    4.1091 O   0  0
   -8.7907   -3.5266    1.9303 C   0  0
   -6.8644   -4.2496    4.2535 C   0  0
   -4.7224   -2.6692    6.2512 C   0  0
   -1.8431   -3.0483    4.7941 C   0  0
    0.2147   -1.1287    6.4788 C   0  0
   -2.7678    1.2522    3.8856 C   0  0
   -6.4710   -0.7298    3.8127 H   0  0
   -4.1562   -0.8480    3.0894 H   0  0
   -0.4194    1.4682    5.5849 H   0  0
   -7.2268   -1.1862    6.7619 O   0  0
    3.4309    0.3733    3.3818 O   0  0
   -9.6327   -1.4697    6.0228 H   0  0
   -9.0932   -0.3862    4.7014 H   0  0
   -8.1338   -1.5142    2.4771 H   0  0
   -5.8221   -1.9070    1.8572 H   0  0
   -6.0064   -3.6835    1.7280 H   0  0
   -4.1150   -3.9021    3.4608 H   0  0
   -3.6412   -3.0034    1.9867 H   0  0
   -2.9253    0.9827    6.6144 H   0  0
   -2.6159   -0.7650    6.8162 H   0  0
   -5.1972   -0.1721    6.6954 H   0  0
   -4.8836    0.5478    5.1242 H   0  0
   -1.5341   -0.6437    2.4167 H   0  0
   -1.3668   -2.4107    2.2980 H   0  0
    0.7247   -2.4510    3.8955 H   0  0
    0.8162   -1.0619    2.8078 H   0  0
   -0.4440    2.3115    3.2082 H   0  0
    0.1404    0.7688    2.6109 H   0  0
    2.6120   -0.9992    5.3596 H   0  0
    2.0446    0.5365    6.1085 H   0  0
    2.7587    3.2992    4.8791 H   0  0
    1.3459    2.5987    5.7205 H   0  0
    1.1029    3.8536    4.4697 H   0  0
    3.1861    2.8384    2.4924 H   0  0
    1.5248    3.3889    2.0898 H   0  0
    2.0910    1.7730    1.5481 H   0  0
   -8.1054   -3.6116    1.0770 H   0  0
   -9.7706   -3.1825    1.5724 H   0  0
   -8.9075   -4.5092    2.4037 H   0  0
   -5.8998   -4.5229    4.6468 H   0  0
   -7.1528   -5.0087    3.5192 H   0  0
   -7.5962   -4.2411    5.0699 H   0  0
   -5.4398   -2.4569    7.0475 H   0  0
   -3.7350   -2.6152    6.6805 H   0  0
   -4.8803   -3.6622    5.8900 H   0  0
   -2.0269   -3.8717    4.0968 H   0  0
   -2.3823   -3.2231    5.6584 H   0  0
   -0.8238   -3.1140    5.0894 H   0  0
    0.4041   -0.3728    7.2524 H   0  0
    0.9007   -1.9738    6.6214 H   0  0
   -0.7844   -1.4797    6.5847 H   0  0
   -2.6326    2.1966    4.4304 H   0  0
   -3.8235    1.1025    3.7035 H   0  0
   -2.2998    1.3243    2.9079 H   0  0
  1  2  1  0
  2  3  1  0
  4  3  1  0
  5  4  1  0
  5  6  1  0
  6  1  1  0
  8  9  1  0
 10  9  1  0
  7 10  1  0
  5  8  1  0
 11 12  1  0
 13 14  1  0
 14 11  1  0
  7 12  1  0
 10 13  1  0
 16 17  1  0
 18 17  1  0
 15 18  1  0
 13 16  1  0
 14 15  1  0
 19 20  1  0
 21 22  1  0
 19 22  1  0
 15 20  1  0
 18 21  1  0
 19 23  1  0
 19 24  1  0
  3 25  2  0
  6  7  1  0
  4 26  1  0
  5 27  1  0
  7 28  1  0
 13 29  1  0
 14 31  1  0
 18 30  1  0
  6 32  1  0
 10 33  1  0
 15 34  1  0
  1 35  2  0
 22 36  2  0
  2 37  1  0
  2 38  1  0
  4 39  1  0
  8 40  1  0
  8 41  1  0
  9 42  1  0
  9 43  1  0
 11 44  1  0
 11 45  1  0
 12 46  1  0
 12 47  1  0
 16 48  1  0
 16 49  1  0
 17 50  1  0
 17 51  1  0
 20 52  1  0
 20 53  1  0
 21 54  1  0
 21 55  1  0
 23 56  1  0
 23 57  1  0
 23 58  1  0
 24 59  1  0
 24 60  1  0
 24 61  1  0
 26 62  1  0
 26 63  1  0
 26 64  1  0
 27 65  1  0
 27 66  1  0
 27 67  1  0
 28 68  1  0
 28 69  1  0
 28 70  1  0
 29 71  1  0
 29 72  1  0
 29 73  1  0
 30 74  1  0
 30 75  1  0
 30 76  1  0
 31 77  1  0
 31 78  1  0
 31 79  1  0
M  END
> <Name>
FLF2019_TM19

> <Clean Energy>
213.664428710938

$$$$
FLF2019_TM20
  SciTegic12132405553D

 80 83  0  0  0  0            999 V2000
   -4.7408    2.5478   -0.8923 C   0  0
   -6.2807    2.4459   -0.9165 C   0  0
   -6.6343    0.9499   -0.9976 C   0  0  1  0  0  0
   -6.1533    0.1918    0.2665 C   0  0
   -4.7053    0.4906    0.5833 C   0  0
   -4.1728    1.9042    0.3887 C   0  0  1  0  0  0
   -2.6093    1.9416    0.3895 C   0  0  2  0  0  0
   -3.9613   -0.4635    1.1605 C   0  0
   -2.5033   -0.2647    1.5373 C   0  0
   -2.0980    1.2234    1.6398 C   0  0  1  0  0  0
   -0.5669    3.4576    0.4069 C   0  0
   -2.1228    3.4354    0.3818 C   0  0
   -0.5639    1.3239    1.6778 C   0  0  1  0  0  0
   -0.0591    2.7368    1.6931 C   0  0  1  0  0  0
    1.5092    1.3718    2.9510 C   0  0
    1.4547    2.3499    1.7388 C   0  0  2  0  0  0
    0.0791    0.7136    2.9414 C   0  0
   -8.0437    0.7671   -1.1451 O   0  0
   -4.7404    2.7379    1.5844 C   0  0
   -2.5228    1.6914    2.5290 H   0  0
   -0.1418    0.8561    0.7779 H   0  0
   -0.5009    3.5074    2.9757 C   0  0
    2.5759    3.4552    1.8498 C   0  0  2  0  0  0
    2.6119    4.4428    0.6562 C   0  0
    3.9388    2.7361    1.9011 C   0  0
    5.0829    3.7650    2.0902 C   0  0
    6.5583    3.1812    2.0896 C   0  0  1  0  0  0
    7.5096    4.4046    2.1204 C   0  0
    8.9836    3.9514    1.9851 C   0  0
    6.9276    2.2280    3.3192 C   0  0
    6.7206    2.9606    4.6694 C   0  0
    6.2091    0.8540    3.3598 C   0  0
   -2.2055    1.4158   -0.4863 H   0  0
   -4.3344    2.0321   -1.7623 H   0  0
   -4.4512    3.5981   -0.9237 H   0  0
   -6.6983    2.8800   -0.0080 H   0  0
   -6.6763    2.9711   -1.7858 H   0  0
   -6.1365    0.5228   -1.8681 H   0  0
   -6.7692    0.4929    1.1140 H   0  0
   -6.2639   -0.8795    0.0987 H   0  0
   -4.4246   -1.4278    1.3695 H   0  0
   -2.3275   -0.7387    2.5029 H   0  0
   -1.8817   -0.7414    0.7794 H   0  0
   -0.1817    2.9438   -0.4738 H   0  0
   -0.2181    4.4903    0.4073 H   0  0
   -2.5104    3.9511    1.2604 H   0  0
   -2.4814    3.9324   -0.5196 H   0  0
    2.2868    0.6205    2.8131 H   0  0
    1.6855    1.9113    3.8816 H   0  0
    1.6655    1.7655    0.8431 H   0  0
    0.1460   -0.3716    2.8637 H   0  0
   -0.4827    0.9803    3.8366 H   0  0
   -8.5398    1.1869   -0.3203 H   0  0
   -4.3947    3.7686    1.5058 H   0  0
   -4.3927    2.3093    2.5244 H   0  0
   -5.8299    2.7176    1.5574 H   0  0
   -0.1116    4.5249    2.9411 H   0  0
   -0.1107    2.9996    3.8578 H   0  0
   -1.5893    3.5369    3.0257 H   0  0
    2.4335    4.0165    2.7732 H   0  0
    3.4093    5.1699    0.8095 H   0  0
    1.6562    4.9622    0.5847 H   0  0
    2.7955    3.8920   -0.2663 H   0  0
    3.9442    2.0351    2.7358 H   0  0
    4.0941    2.1931    0.9689 H   0  0
    5.0129    4.4921    1.2812 H   0  0
    4.9243    4.2665    3.0449 H   0  0
    6.7193    2.6343    1.1605 H   0  0
    7.3827    4.9333    3.0651 H   0  0
    7.2625    5.0713    1.2942 H   0  0
    9.6362    4.8241    2.0088 H   0  0
    9.1169    3.4243    1.0403 H   0  0
    9.2370    3.2863    2.8107 H   0  0
    7.9944    2.0184    3.2401 H   0  0
    6.9786    2.2911    5.4899 H   0  0
    5.6778    3.2637    4.7627 H   0  0
    7.3597    3.8429    4.7064 H   0  0
    6.5389    0.2967    4.2365 H   0  0
    6.4513    0.2900    2.4590 H   0  0
    5.1313    1.0084    3.4124 H   0  0
  1  2  1  0
  2  3  1  0
  3  4  1  0
  4  5  1  0
  5  6  1  0
  1  6  1  0
  8  9  1  0
  9 10  1  0
  7 10  1  0
  5  8  2  0
  7  6  1  0
 11 12  1  0
 13 14  1  0
 11 14  1  0
 12  7  1  0
 10 13  1  0
 15 16  1  0
 15 17  1  0
 16 14  1  0
 13 17  1  0
  3 18  1  0
  6 19  1  0
 10 20  1  0
 13 21  1  0
 14 22  1  0
 16 23  1  0
 23 25  1  0
 25 26  1  0
 26 27  1  0
 28 29  1  0
 27 30  1  0
 30 31  1  0
 30 32  1  0
 27 28  1  0
  7 33  1  0
 23 24  1  0
  1 34  1  0
  1 35  1  0
  2 36  1  0
  2 37  1  0
  3 38  1  0
  4 39  1  0
  4 40  1  0
  8 41  1  0
  9 42  1  0
  9 43  1  0
 11 44  1  0
 11 45  1  0
 12 46  1  0
 12 47  1  0
 15 48  1  0
 15 49  1  0
 16 50  1  0
 17 51  1  0
 17 52  1  0
 18 53  1  0
 19 54  1  0
 19 55  1  0
 19 56  1  0
 22 57  1  0
 22 58  1  0
 22 59  1  0
 23 60  1  0
 24 61  1  0
 24 62  1  0
 24 63  1  0
 25 64  1  0
 25 65  1  0
 26 66  1  0
 26 67  1  0
 27 68  1  0
 28 69  1  0
 28 70  1  0
 29 71  1  0
 29 72  1  0
 29 73  1  0
 30 74  1  0
 31 75  1  0
 31 76  1  0
 31 77  1  0
 32 78  1  0
 32 79  1  0
 32 80  1  0
M  END
> <Name>
FLF2019_TM20

> <Clean Energy>
54.8408

$$$$
FLF2019_TM21
  SciTegic12132405553D

 81 85  0  0  0  0            999 V2000
   -9.5159   -1.3368   -1.9880 C   0  0
  -10.8507   -1.8655   -2.5860 C   0  0
  -10.7601   -3.3232   -3.0051 C   0  0
   -9.4821   -3.8381   -3.6112 C   0  0  1  0  0  0
   -8.2217   -3.3688   -2.8668 C   0  0  2  0  0  0
   -8.2728   -1.7745   -2.8014 C   0  0  2  0  0  0
   -6.9667   -1.0989   -2.1881 C   0  0  1  0  0  0
   -6.9732   -3.7643   -3.6925 C   0  0
   -5.6501   -3.1664   -3.1018 C   0  0
   -5.7534   -1.6057   -3.1368 C   0  0  2  0  0  0
   -5.6615    1.1241   -1.8766 C   0  0
   -7.0354    0.4497   -2.3168 C   0  0
   -4.3280   -0.9121   -2.7832 C   0  0  2  0  0  0
   -4.5163    0.6883   -2.8629 C   0  0  2  0  0  0
   -3.0455    1.3819   -2.4092 C   0  0  1  0  0  0
   -3.2264   -1.3059   -3.8159 C   0  0
   -1.8645   -0.6741   -3.3601 C   0  0
   -1.8373    0.8966   -3.3206 C   0  0  1  0  0  0
   -2.7555    3.8117   -3.7029 C   0  0
   -2.8765    2.9911   -2.3390 C   0  0
   -1.8595    1.5534   -4.7567 C   0  0
   -1.6294    3.1183   -4.5457 C   0  0
   -4.0389    3.9849   -4.5189 C   0  0
   -2.3174    5.2473   -3.3668 C   0  0
  -11.7945   -3.9890   -3.1182 O   0  0
   -9.5296   -5.3664   -3.8135 C   0  0
   -8.1977   -4.1217   -1.4902 C   0  0
   -6.8447   -1.3895   -0.6418 C   0  0
   -3.7922   -1.3999   -1.3843 C   0  0
   -0.5022    1.2671   -2.6995 C   0  0
   -5.0354    1.0040   -4.3036 C   0  0
   -8.3482   -1.4215   -3.8390 H   0  0
   -6.0186   -1.3251   -4.1549 H   0  0
   -2.8871    1.0133   -1.3981 H   0  0
    0.6465    1.3152   -3.4888 O   0  0
   -0.4034    1.3878   -1.4728 O   0  0
   -9.5518   -0.2475   -1.9680 H   0  0
   -9.4166   -1.7163   -0.9710 H   0  0
  -11.6345   -1.7653   -1.8352 H   0  0
  -11.1049   -1.2653   -3.4596 H   0  0
   -9.4237   -3.4028   -4.6088 H   0  0
   -7.0977   -3.3984   -4.7116 H   0  0
   -6.8912   -4.8512   -3.7036 H   0  0
   -5.5212   -3.5034   -2.0732 H   0  0
   -4.7997   -3.4922   -3.7007 H   0  0
   -5.7666    2.2088   -1.9004 H   0  0
   -5.4092    0.8051   -0.8653 H   0  0
   -7.8360    0.8244   -1.6791 H   0  0
   -7.2438    0.7115   -3.3542 H   0  0
   -3.4952   -0.9267   -4.8019 H   0  0
   -3.1324   -2.3910   -3.8566 H   0  0
   -1.6411   -1.0407   -2.3582 H   0  0
   -1.0899   -1.0077   -4.0506 H   0  0
   -1.9739    3.1934   -1.7623 H   0  0
   -3.7437    3.3813   -1.8063 H   0  0
   -2.8221    1.3761   -5.2364 H   0  0
   -1.0634    1.1361   -5.3734 H   0  0
   -0.6784    3.2603   -4.0324 H   0  0
   -1.5891    3.5955   -5.5249 H   0  0
   -3.8226    4.5589   -5.4198 H   0  0
   -4.7814    4.5139   -3.9213 H   0  0
   -4.4280    3.0056   -4.7974 H   0  0
   -2.2287    5.8254   -4.2866 H   0  0
   -1.3533    5.2240   -2.8586 H   0  0
   -3.0592    5.7113   -2.7167 H   0  0
   -8.5912   -5.7047   -4.2527 H   0  0
  -10.3542   -5.6198   -4.4798 H   0  0
   -9.6771   -5.8564   -2.8510 H   0  0
   -7.3164   -3.8185   -0.9250 H   0  0
   -8.1647   -5.1972   -1.6642 H   0  0
   -9.0951   -3.8730   -0.9237 H   0  0
   -7.7223   -0.9978   -0.1276 H   0  0
   -5.9493   -0.9067   -0.2504 H   0  0
   -6.7782   -2.4651   -0.4780 H   0  0
   -3.6864   -2.4847   -1.3933 H   0  0
   -4.4961   -1.1105   -0.6040 H   0  0
   -2.8227   -0.9425   -1.1864 H   0  0
   -5.1801    2.0790   -4.4108 H   0  0
   -5.9834    0.4921   -4.4691 H   0  0
   -4.3051    0.6613   -5.0367 H   0  0
    0.8192    0.3708   -3.9142 H   0  0
  1  2  1  0
  2  3  1  0
  4  3  1  0
  5  4  1  0
  5  6  1  0
  6  1  1  0
  8  9  1  0
 10  9  1  0
  7 10  1  0
  5  8  1  0
 11 12  1  0
 13 14  1  0
 14 11  1  0
  7 12  1  0
 10 13  1  0
 16 17  1  0
 18 17  1  0
 15 18  1  0
 13 16  1  0
 14 15  1  0
 19 20  1  0
 21 22  1  0
 19 22  1  0
 15 20  1  0
 18 21  1  0
 19 23  1  0
 19 24  1  0
  3 25  2  0
  6  7  1  0
  4 26  1  0
  5 27  1  0
  7 28  1  0
 13 29  1  0
 14 31  1  0
 18 30  1  0
  6 32  1  0
 10 33  1  0
 15 34  1  0
 30 35  1  0
 30 36  2  0
  1 37  1  0
  1 38  1  0
  2 39  1  0
  2 40  1  0
  4 41  1  0
  8 42  1  0
  8 43  1  0
  9 44  1  0
  9 45  1  0
 11 46  1  0
 11 47  1  0
 12 48  1  0
 12 49  1  0
 16 50  1  0
 16 51  1  0
 17 52  1  0
 17 53  1  0
 20 54  1  0
 20 55  1  0
 21 56  1  0
 21 57  1  0
 22 58  1  0
 22 59  1  0
 23 60  1  0
 23 61  1  0
 23 62  1  0
 24 63  1  0
 24 64  1  0
 24 65  1  0
 26 66  1  0
 26 67  1  0
 26 68  1  0
 27 69  1  0
 27 70  1  0
 27 71  1  0
 28 72  1  0
 28 73  1  0
 28 74  1  0
 29 75  1  0
 29 76  1  0
 29 77  1  0
 31 78  1  0
 31 79  1  0
 31 80  1  0
 35 81  1  0
M  END
> <Name>
FLF2019_TM21

> <Clean Energy>
68.7071

$$$$
FLF2019_TM23
  SciTegic12132405553D

 83 87  0  0  0  0            999 V2000
   -8.0842   -1.8473   -5.8152 C   0  0
   -8.1832   -2.2072   -7.3250 C   0  0
   -7.4256   -3.4788   -7.6679 C   0  0
   -6.1218   -3.7702   -6.9744 C   0  0  1  0  0  0
   -6.1653   -3.5110   -5.4598 C   0  0  2  0  0  0
   -6.6517   -2.0053   -5.2480 C   0  0  2  0  0  0
   -6.6178   -1.5096   -3.7342 C   0  0  1  0  0  0
   -4.7309   -3.6249   -4.8885 C   0  0
   -4.6498   -3.1966   -3.3828 C   0  0
   -5.0748   -1.6950   -3.2719 C   0  0  2  0  0  0
   -6.7366    0.5544   -2.1634 C   0  0
   -6.9461    0.0079   -3.6444 C   0  0
   -4.7722   -1.1041   -1.7893 C   0  0  2  0  0  0
   -5.2178    0.4478   -1.7677 C   0  0  2  0  0  0
   -4.9727    1.0126   -0.1924 C   0  0  1  0  0  0
   -3.2494   -1.1606   -1.4499 C   0  0
   -3.0454   -0.6612    0.0235 C   0  0
   -3.4656    0.8301    0.2835 C   0  0  1  0  0  0
   -4.4243    3.7275   -0.2667 C   0  0  2  0  0  0
   -5.3596    2.5342    0.2225 C   0  0
   -2.5026    1.8989   -0.3852 C   0  0
   -2.9604    3.3289    0.1444 C   0  0  1  0  0  0
   -4.8456    5.0194    0.4620 C   0  0
   -4.5189    4.0747   -1.7519 C   0  0
   -7.7190   -4.1040   -8.6922 O   0  0
   -5.5949   -5.1751   -7.3314 C   0  0
   -7.0686   -4.6294   -4.8309 C   0  0
   -7.7229   -2.2329   -2.8705 C   0  0
   -5.4869   -1.9649   -0.6803 C   0  0
   -3.3543    1.0666    1.8149 C   0  0
   -4.4150    1.1539   -2.9102 C   0  0
   -5.9470   -1.3686   -5.8000 H   0  0
   -4.4691   -1.1375   -3.9844 H   0  0
   -5.6059    0.3679    0.4133 H   0  0
   -3.9881    6.0983    0.0828 O   0  0
   -2.0502    4.3471   -0.2742 O   0  0
   -8.3972   -0.8115   -5.6839 H   0  0
   -8.7528   -2.5029   -5.2574 H   0  0
   -9.2331   -2.3447   -7.5838 H   0  0
   -7.7693   -1.3850   -7.9087 H   0  0
   -5.3984   -3.0636   -7.3813 H   0  0
   -4.0706   -2.9823   -5.4708 H   0  0
   -4.4011   -4.6601   -4.9757 H   0  0
   -5.3227   -3.8142   -2.7879 H   0  0
   -3.6290   -3.3177   -3.0204 H   0  0
   -7.0511    1.5969   -2.1143 H   0  0
   -7.3336   -0.0388   -1.4707 H   0  0
   -7.9839    0.1653   -3.9381 H   0  0
   -6.2895    0.5545   -4.3214 H   0  0
   -2.6967   -0.5178   -2.1351 H   0  0
   -2.8905   -2.1855   -1.5430 H   0  0
   -3.6364   -1.2985    0.6812 H   0  0
   -1.9888   -0.7628    0.2715 H   0  0
   -5.3833    2.5724    1.3116 H   0  0
   -6.3577    2.7287   -0.1702 H   0  0
   -2.5909    1.8555   -1.4708 H   0  0
   -1.4696    1.7053   -0.0961 H   0  0
   -2.9286    3.2953    1.2334 H   0  0
   -5.8735    5.2650    0.1952 H   0  0
   -4.7762    4.8650    1.5388 H   0  0
   -3.8420    4.8989   -1.9767 H   0  0
   -5.5406    4.3684   -1.9925 H   0  0
   -4.2415    3.2047   -2.3472 H   0  0
   -4.6523   -5.3526   -6.8136 H   0  0
   -5.4356   -5.2413   -8.4077 H   0  0
   -6.3238   -5.9256   -7.0255 H   0  0
   -7.1286   -4.4850   -3.7523 H   0  0
   -6.6368   -5.6077   -5.0425 H   0  0
   -8.0688   -4.5737   -5.2606 H   0  0
   -8.7069   -2.0249   -3.2906 H   0  0
   -7.6812   -1.8658   -1.8450 H   0  0
   -7.5449   -3.3083   -2.8785 H   0  0
   -5.1462   -2.9982   -0.7459 H   0  0
   -6.5659   -1.9284   -0.8305 H   0  0
   -5.2438   -1.5646    0.3040 H   0  0
   -3.6374    2.0935    2.0460 H   0  0
   -2.3274    0.8923    2.1363 H   0  0
   -4.0199    0.3802    2.3384 H   0  0
   -4.6791    2.2110   -2.9407 H   0  0
   -4.6595    0.6911   -3.8663 H   0  0
   -3.3465    1.0522   -2.7205 H   0  0
   -2.9971    5.8652    0.3399 H   0  0
   -1.0933    4.1392    0.1049 H   0  0
  1  2  1  0
  2  3  1  0
  4  3  1  0
  5  4  1  0
  5  6  1  0
  6  1  1  0
  8  9  1  0
 10  9  1  0
  7 10  1  0
  5  8  1  0
 11 12  1  0
 13 14  1  0
 14 11  1  0
  7 12  1  0
 10 13  1  0
 16 17  1  0
 18 17  1  0
 15 18  1  0
 13 16  1  0
 14 15  1  0
 19 20  1  0
 21 22  1  0
 19 22  1  0
 15 20  1  0
 18 21  1  0
  3 25  2  0
  6  7  1  0
  4 26  1  0
  5 27  1  0
  7 28  1  0
 13 29  1  0
 14 31  1  0
 18 30  1  0
  6 32  1  0
 10 33  1  0
 15 34  1  0
 19 24  1  0
 19 23  1  0
 23 35  1  0
 22 36  1  0
  1 37  1  0
  1 38  1  0
  2 39  1  0
  2 40  1  0
  4 41  1  0
  8 42  1  0
  8 43  1  0
  9 44  1  0
  9 45  1  0
 11 46  1  0
 11 47  1  0
 12 48  1  0
 12 49  1  0
 16 50  1  0
 16 51  1  0
 17 52  1  0
 17 53  1  0
 20 54  1  0
 20 55  1  0
 21 56  1  0
 21 57  1  0
 22 58  1  0
 23 59  1  0
 23 60  1  0
 24 61  1  0
 24 62  1  0
 24 63  1  0
 26 64  1  0
 26 65  1  0
 26 66  1  0
 27 67  1  0
 27 68  1  0
 27 69  1  0
 28 70  1  0
 28 71  1  0
 28 72  1  0
 29 73  1  0
 29 74  1  0
 29 75  1  0
 30 76  1  0
 30 77  1  0
 30 78  1  0
 31 79  1  0
 31 80  1  0
 31 81  1  0
 35 82  1  0
 36 83  1  0
M  END
> <Name>
FLF2019_TM23

> <Clean Energy>
56.7333

$$$$
FLF2019_TM24
  SciTegic12132405553D

 83 87  0  0  0  0            999 V2000
   -9.4983   -2.1457   -3.5849 C   0  0
  -10.1602   -3.0899   -4.6102 C   0  0
   -9.8145   -4.4847   -4.2465 C   0  0
   -8.3761   -4.8431   -4.2671 C   0  0  1  0  0  0
   -7.6680   -3.9789   -3.1462 C   0  0  2  0  0  0
   -7.9403   -2.4135   -3.5343 C   0  0  2  0  0  0
   -7.1627   -1.3337   -2.5869 C   0  0  1  0  0  0
   -6.1375   -4.1894   -3.2041 C   0  0
   -5.3134   -3.2394   -2.2625 C   0  0
   -5.5470   -1.7482   -2.7295 C   0  0  2  0  0  0
   -6.3429    1.1902   -2.4135 C   0  0
   -7.3289    0.1174   -3.1577 C   0  0
   -4.4975   -0.6774   -1.9836 C   0  0  2  0  0  0
   -4.7872    0.8045   -2.6225 C   0  0  2  0  0  0
   -3.7593    1.9266   -1.7606 C   0  0  1  0  0  0
   -2.9387   -1.0278   -2.2828 C   0  0
   -2.0004   -0.0070   -1.5177 C   0  0
   -2.1575    1.5295   -1.8591 C   0  0  1  0  0  0
   -3.0886    4.1785   -3.3881 C   0  0  2  0  0  0
   -3.7897    3.5581   -2.0530 C   0  0
   -1.5404    2.0115   -3.2966 C   0  0
   -1.6268    3.6441   -3.4032 C   0  0
   -3.1503    5.7199   -3.2663 C   0  0
   -3.7066    3.9134   -4.7455 C   0  0
  -10.6871   -5.3268   -4.0100 O   0  0
   -8.1989   -6.3865   -4.1506 C   0  0
   -8.2066   -4.4772   -1.7285 C   0  0
   -7.8212   -1.2477   -1.1184 C   0  0
   -4.6713   -0.7583   -0.3651 C   0  0
   -1.2783    2.2460   -0.7195 C   0  0
   -4.5852    0.7193   -4.2033 C   0  0
   -7.5227   -2.2774   -4.5410 H   0  0
   -5.3139   -1.7263   -3.7896 H   0  0
   -4.0959    1.7838   -0.7361 H   0  0
   -2.4950    6.3739   -4.3711 O   0  0
    0.1273    1.9044   -0.8092 O   0  0
   -9.7013   -1.1131   -3.8904 H   0  0
   -9.9314   -2.3222   -2.5931 H   0  0
  -11.2476   -2.9381   -4.6405 H   0  0
   -9.6993   -2.8567   -5.5800 H   0  0
   -7.9465   -4.4880   -5.2141 H   0  0
   -5.8014   -3.9671   -4.2259 H   0  0
   -5.9146   -5.2369   -2.9682 H   0  0
   -5.5848   -3.3713   -1.2074 H   0  0
   -4.2567   -3.4920   -2.3996 H   0  0
   -6.5126    2.1834   -2.8502 H   0  0
   -6.5706    1.2269   -1.3431 H   0  0
   -8.3794    0.4205   -3.0700 H   0  0
   -7.0686    0.1009   -4.2105 H   0  0
   -2.7312   -1.0002   -3.3549 H   0  0
   -2.7207   -2.0342   -1.9058 H   0  0
   -2.2375   -0.1101   -0.4725 H   0  0
   -0.9471   -0.2820   -1.6456 H   0  0
   -3.2058    3.9979   -1.2439 H   0  0
   -4.8233    3.9190   -1.9726 H   0  0
   -2.0447    1.5482   -4.1274 H   0  0
   -0.4810    1.7256   -3.3217 H   0  0
   -1.1113    4.0470   -2.5410 H   0  0
   -1.1282    4.0196   -4.3065 H   0  0
   -4.2051    6.0268   -3.2508 H   0  0
   -2.6678    6.0257   -2.3277 H   0  0
   -3.1252    4.4503   -5.5057 H   0  0
   -4.7442    4.2727   -4.7579 H   0  0
   -3.6686    2.9097   -4.9798 H   0  0
   -7.1325   -6.6452   -4.1854 H   0  0
   -8.7152   -6.8688   -4.9916 H   0  0
   -8.6320   -6.7497   -3.2106 H   0  0
   -7.7318   -3.9415   -0.9283 H   0  0
   -7.9730   -5.5382   -1.5979 H   0  0
   -9.2920   -4.3376   -1.6606 H   0  0
   -8.8771   -0.9738   -1.2104 H   0  0
   -7.3505   -0.4941   -0.5262 H   0  0
   -7.7434   -2.1697   -0.5970 H   0  0
   -4.4444   -1.7762   -0.0272 H   0  0
   -5.6367   -0.5056   -0.0630 H   0  0
   -4.0070   -0.0716    0.1468 H   0  0
   -1.3525    3.3280   -0.7867 H   0  0
   -1.6623    1.9377    0.2622 H   0  0
   -4.8489    1.6431   -4.6224 H   0  0
   -5.2149   -0.0202   -4.6720 H   0  0
   -3.5622    0.4747   -4.4550 H   0  0
   -1.5328    6.1562   -4.3878 H   0  0
    0.2831    0.9468   -0.6541 H   0  0
  1  2  1  0
  2  3  1  0
  4  3  1  0
  5  4  1  0
  5  6  1  0
  6  1  1  0
  8  9  1  0
 10  9  1  0
  7 10  1  0
  5  8  1  0
 11 12  1  0
 13 14  1  0
 14 11  1  0
  7 12  1  0
 10 13  1  0
 16 17  1  0
 18 17  1  0
 15 18  1  0
 13 16  1  0
 14 15  1  0
 19 20  1  0
 21 22  1  0
 19 22  1  0
 15 20  1  0
 18 21  1  0
  3 25  2  0
  6  7  1  0
  4 26  1  0
  5 27  1  0
  7 28  1  0
 13 29  1  0
 14 31  1  0
 18 30  1  0
  6 32  1  0
 10 33  1  0
 15 34  1  0
 19 24  1  0
 19 23  1  0
 23 35  1  0
 30 36  1  0
  1 37  1  0
  1 38  1  0
  2 39  1  0
  2 40  1  0
  4 41  1  0
  8 42  1  0
  8 43  1  0
  9 44  1  0
  9 45  1  0
 11 46  1  0
 11 47  1  0
 12 48  1  0
 12 49  1  0
 16 50  1  0
 16 51  1  0
 17 52  1  0
 17 53  1  0
 20 54  1  0
 20 55  1  0
 21 56  1  0
 21 57  1  0
 22 58  1  0
 22 59  1  0
 23 60  1  0
 23 61  1  0
 24 62  1  0
 24 63  1  0
 24 64  1  0
 26 65  1  0
 26 66  1  0
 26 67  1  0
 27 68  1  0
 27 69  1  0
 27 70  1  0
 28 71  1  0
 28 72  1  0
 28 73  1  0
 29 74  1  0
 29 75  1  0
 29 76  1  0
 30 77  1  0
 30 78  1  0
 31 79  1  0
 31 80  1  0
 31 81  1  0
 35 82  1  0
 36 83  1  0
M  END
> <Name>
FLF2019_TM24

> <Clean Energy>
96.3399

$$$$
FLF2019_TM25
  SciTegic12132405553D

 35 37  0  0  0  0            999 V2000
    1.3693    7.1347    3.4384 C   0  0
    1.1431    8.3277    3.9844 C   0  0
    0.1409    8.4714    5.0393 C   0  0
   -0.5492    7.4101    5.4509 C   0  0
   -0.3096    6.0976    4.8487 C   0  0
    0.6150    5.9627    3.8881 C   0  0
    0.8873    4.7363    3.3234 O   0  0
   -1.1014    4.9104    5.3335 C   0  0
   -1.1841    3.8595    4.2227 C   0  0  2  0  0  0
    0.2343    3.5740    3.7510 C   0  0  1  0  0  0
    1.2654    2.5303    1.7891 C   0  0
    1.3233    1.4978    0.7532 C   0  0
    0.3984    0.5403    0.7136 C   0  0
   -0.6778    0.5192    1.7069 C   0  0
   -0.7312    1.4582    2.6496 C   0  0
    0.2872    2.5132    2.6921 C   0  0
    1.8622    9.4371    3.5532 O   0  0
   -1.5022    7.5481    6.4536 O   0  0
   -1.9363    4.3847    3.1227 O   0  0
    0.4550   -0.4396   -0.2713 O   0  0
    2.3444    1.5163   -0.1903 O   0  0
    2.1185    7.0300    2.6537 H   0  0
   -0.0412    9.4477    5.4886 H   0  0
   -2.1072    5.2316    5.6043 H   0  0
   -0.6102    4.4785    6.2054 H   0  0
   -1.6489    2.9478    4.5981 H   0  0
    0.7868    3.1951    4.6108 H   0  0
    2.0231    3.3132    1.8213 H   0  0
   -1.4345   -0.2647    1.6745 H   0  0
   -1.5315    1.4430    3.3894 H   0  0
    2.8870    9.2747    3.7144 H   0  0
   -1.0426    7.9064    7.3271 H   0  0
   -2.9051    4.6291    3.4454 H   0  0
    0.3945    0.0108   -1.2178 H   0  0
    2.3059    2.4157   -0.7309 H   0  0
  1  2  2  0
  2  3  1  0
  3  4  2  0
  4  5  1  0
  5  6  2  0
  1  6  1  0
  8  9  1  0
  9 10  1  0
  7 10  1  0
  5  8  1  0
  7  6  1  0
 11 12  1  0
 12 13  2  0
 13 14  1  0
 14 15  2  0
 15 16  1  0
 11 16  2  0
  2 17  1  0
  4 18  1  0
  9 19  1  0
 10 16  1  0
 13 20  1  0
 12 21  1  0
  1 22  1  0
  3 23  1  0
  8 24  1  0
  8 25  1  0
  9 26  1  0
 10 27  1  0
 11 28  1  0
 14 29  1  0
 15 30  1  0
 17 31  1  0
 18 32  1  0
 19 33  1  0
 20 34  1  0
 21 35  1  0
M  END
> <Name>
FLF2019_TM25

> <Clean Energy>
3.46733

$$$$
FLF2019_TM26
  SciTegic12132405553D

 91 95  0  0  0  0            999 V2000
   -2.7506   -4.7300   -1.3033 C   0  0  2  0  0  0
   -4.2578   -5.0700   -0.9100 C   0  0  1  0  0  0
   -4.4220   -4.9415    0.6758 C   0  0  1  0  0  0
   -3.5216   -6.0109    1.3708 C   0  0  2  0  0  0
   -1.9880   -5.7546    0.9502 C   0  0  2  0  0  0
   -1.7846   -5.7638   -0.6486 C   0  0  2  0  0  0
   -0.3699   -5.4000   -1.0835 C   0  0  2  0  0  0
   -1.0814   -6.8632    1.6030 C   0  0  1  0  0  0
    0.3050   -6.1819    1.3638 C   0  0  1  0  0  0
    0.5654   -6.1478   -0.1771 C   0  0
   -5.1387   -4.1192   -1.5508 O   0  0
   -4.0604   -3.5931    1.0686 O   0  0
   -1.4913   -4.4419    1.4329 O   0  0
   -0.0688   -4.0050   -1.0068 O   0  0
   -2.4155   -3.4067   -0.7962 O   0  0
    1.6844   -6.4677   -0.5912 O   0  0
   -6.5157   -4.4868   -1.6388 C   0  0
   -7.3030   -3.6867   -2.1555 O   0  0
   -7.0409   -5.8471   -1.2171 C   0  0
   -4.5183   -3.1652    2.3545 C   0  0
   -4.2063   -2.0339    2.7409 O   0  0
   -5.4412   -3.9971    3.2279 C   0  0
   -2.7900   -2.1665   -1.4633 C   0  0
   -3.4083   -1.9690   -2.8347 C   0  0
    1.0726   -3.7439   -1.7978 C   0  0
    1.5657   -2.3851   -1.9616 C   0  0
   -2.0253   -7.1730   -1.2611 C   0  0
   -1.8258   -7.0913   -2.6719 O   0  0
   -1.9926   -8.3443   -3.2457 C   0  0
   -2.2711   -9.3190   -2.5382 O   0  0
   -1.8278   -8.5141   -4.7272 C   0  0
   -0.1222   -4.7197    1.9838 C   0  0
    0.9189   -3.6026    1.7401 C   0  0
   -0.2539   -4.6936    3.5344 C   0  0
   -1.3903   -7.0775    2.9966 O   0  0
   -0.6464   -8.1523    3.5320 C   0  0
   -0.8255   -8.5316    4.9732 C   0  0
    0.1328   -8.7989    2.8221 O   0  0
   -4.1218   -7.4275    1.0916 C   0  0
   -4.5275   -1.3890   -5.3540 C   0  0
   -4.1756   -2.7649   -5.0145 C   0  0
   -3.6443   -3.0436   -3.8263 C   0  0
   -3.7245   -0.7181   -3.1702 C   0  0
   -4.3109   -0.4139   -4.4755 C   0  0
    3.1172   -0.8026   -2.9403 C   0  0
    2.6197   -2.1639   -2.7470 C   0  0
    0.9006   -1.2676   -1.2945 C   0  0
    1.3507   -0.0267   -1.4718 C   0  0
    2.5124    0.2171   -2.3341 C   0  0
   -2.5319   -1.1308   -0.8408 O   0  0
    1.6296   -4.6599   -2.4124 O   0  0
   -2.6367   -4.7513   -2.3871 H   0  0
   -4.5067   -6.0820   -1.2293 H   0  0
   -5.4630   -5.1238    0.9426 H   0  0
   -3.5920   -5.8394    2.4449 H   0  0
   -0.2164   -5.7392   -2.1079 H   0  0
   -1.1530   -7.7968    1.0450 H   0  0
    1.1127   -6.6582    1.9196 H   0  0
   -8.1182   -5.8871   -1.3783 H   0  0
   -6.8259   -6.0087   -0.1608 H   0  0
   -6.5564   -6.6237   -1.8090 H   0  0
   -5.6467   -3.4608    4.1542 H   0  0
   -4.9635   -4.9494    3.4583 H   0  0
   -6.3767   -4.1789    2.6987 H   0  0
   -3.0452   -7.4959   -1.0518 H   0  0
   -1.3223   -7.8862   -0.8308 H   0  0
   -1.9948   -9.5574   -4.9947 H   0  0
   -0.8183   -8.2224   -5.0168 H   0  0
   -2.5506   -7.8859   -5.2480 H   0  0
    1.8749   -3.8953    2.1740 H   0  0
    0.5767   -2.6785    2.2060 H   0  0
    1.0398   -3.4456    0.6682 H   0  0
   -0.9731   -5.4488    3.8513 H   0  0
   -0.5969   -3.7094    3.8539 H   0  0
    0.7158   -4.9040    3.9856 H   0  0
   -0.1773   -9.3751    5.2107 H   0  0
   -1.8642   -8.8113    5.1494 H   0  0
   -0.5653   -7.6842    5.6075 H   0  0
   -3.5029   -8.1857    1.5713 H   0  0
   -4.1470   -7.6066    0.0167 H   0  0
   -5.1343   -7.4791    1.4920 H   0  0
   -4.9667   -1.1614   -6.3253 H   0  0
   -4.3481   -3.5645   -5.7348 H   0  0
   -3.3805   -4.0723   -3.5807 H   0  0
   -3.5434    0.0899   -2.4614 H   0  0
   -4.5709    0.6139   -4.7287 H   0  0
    3.9817   -0.6229   -3.5793 H   0  0
    3.1114   -2.9990   -3.2459 H   0  0
    0.0381   -1.4494   -0.6532 H   0  0
    0.8556    0.8083   -0.9759 H   0  0
    2.8804    1.2329   -2.4786 H   0  0
  1  2  1  0
  2  3  1  0
  3  4  1  0
  4  5  1  0
  5  6  1  0
  1  6  1  0
  8  9  1  0
  9 10  1  0
  7 10  1  0
  5  8  1  0
  7  6  1  0
 10 16  2  0
 11 17  1  0
 17 18  2  0
 17 19  1  0
 12 20  1  0
 20 21  2  0
 20 22  1  0
 15 23  1  0
 23 24  1  0
 14 25  1  0
 25 26  1  0
 27 28  1  0
 28 29  1  0
 29 30  2  0
 29 31  1  0
 32 33  1  0
 32 13  1  0
  9 32  1  0
 32 34  1  0
 35 36  1  0
 36 37  1  0
 36 38  2  0
  8 35  1  0
  5 13  1  0
  4 39  1  0
  3 12  1  0
  2 11  1  0
 40 41  1  0
 41 42  2  0
 43 44  1  0
 40 44  2  0
 42 24  1  0
 24 43  2  0
 45 46  1  0
 47 48  2  0
 48 49  1  0
 45 49  2  0
 46 26  2  0
 26 47  1  0
  1 15  1  0
  7 14  1  0
  6 27  1  0
 23 50  2  0
 25 51  2  0
  1 52  1  0
  2 53  1  0
  3 54  1  0
  4 55  1  0
  7 56  1  0
  8 57  1  0
  9 58  1  0
 19 59  1  0
 19 60  1  0
 19 61  1  0
 22 62  1  0
 22 63  1  0
 22 64  1  0
 27 65  1  0
 27 66  1  0
 31 67  1  0
 31 68  1  0
 31 69  1  0
 33 70  1  0
 33 71  1  0
 33 72  1  0
 34 73  1  0
 34 74  1  0
 34 75  1  0
 37 76  1  0
 37 77  1  0
 37 78  1  0
 39 79  1  0
 39 80  1  0
 39 81  1  0
 40 82  1  0
 41 83  1  0
 42 84  1  0
 43 85  1  0
 44 86  1  0
 45 87  1  0
 46 88  1  0
 47 89  1  0
 48 90  1  0
 49 91  1  0
M  END
> <Name>
FLF2019_TM26

> <Clean Energy>
94.3558

$$$$
FLF2019_TM27
  SciTegic12132405553D

 68 72  0  0  0  0            999 V2000
   -2.7440   -0.1506   -0.3035 C   0  0
   -0.7277    1.1115    0.5541 C   0  0
    0.0640    0.1173    0.1583 C   0  0
   -0.5113   -1.0729   -0.4762 C   0  0
   -1.9575   -1.1519   -0.6955 C   0  0
   -2.5583   -2.3197   -1.4168 C   0  0  1  0  0  0
    0.2900   -2.0738   -0.8364 C   0  0
   -0.2357   -3.3062   -1.4251 C   0  0
   -1.5322   -3.4698   -1.6926 C   0  0
   -4.3727   -4.1820   -1.3798 C   0  0
   -3.7851   -2.9017   -0.6642 C   0  0
   -2.0190   -4.8453   -2.2207 C   0  0  2  0  0  0
   -3.2744   -5.2951   -1.3416 C   0  0  2  0  0  0
   -3.8278   -6.7155   -2.0029 C   0  0  1  0  0  0
   -0.9206   -5.9643   -2.1485 C   0  0
   -1.4840   -7.2809   -2.8292 C   0  0
   -2.7251   -7.8580   -2.0818 C   0  0  1  0  0  0
   -4.7951   -7.9773    0.1110 C   0  0  2  0  0  0
   -5.0819   -7.3810   -1.3051 C   0  0
   -2.3225   -8.4158   -0.6880 C   0  0  1  0  0  0
   -3.5458   -8.8614    0.1084 C   0  0
   -2.1708    1.0209    0.3534 C   0  0
   -2.9051    1.9440    0.7221 O   0  0
   -0.1803    2.2362    1.1614 O   0  0
    1.5472    0.2141    0.3730 C   0  0
   -3.1791   -1.7164   -2.7121 C   0  0
   -2.3733   -4.6919   -3.7441 C   0  0
   -2.8012   -5.3630    0.1732 C   0  0
   -3.2911   -9.0533   -2.8939 C   0  0
   -1.3485   -9.4559   -0.7783 O   0  0
   -3.4634   -9.8193    0.8842 O   0  0
   -6.0133   -8.6873    0.7255 C   0  0
   -4.1200   -6.4680   -3.0235 H   0  0
   -3.8192   -0.2060   -0.4736 H   0  0
    1.3652   -1.9725   -0.6888 H   0  0
    0.4555   -4.1177   -1.6528 H   0  0
   -5.2652   -4.5233   -0.8554 H   0  0
   -4.6259   -3.9459   -2.4134 H   0  0
   -4.5620   -2.1386   -0.6169 H   0  0
   -3.4801   -3.1735    0.3463 H   0  0
   -0.6738   -6.1680   -1.1066 H   0  0
   -0.0261   -5.6336   -2.6764 H   0  0
   -1.7712   -7.0482   -3.8546 H   0  0
   -0.6974   -8.0354   -2.8340 H   0  0
   -4.5718   -7.1315    0.7614 H   0  0
   -5.4413   -8.1855   -1.9467 H   0  0
   -5.8577   -6.6220   -1.2040 H   0  0
   -1.8636   -7.5955   -0.1362 H   0  0
    0.3251    1.9510    2.0365 H   0  0
    2.0299   -0.6846   -0.0111 H   0  0
    1.7551    0.3103    1.4387 H   0  0
    1.9348    1.0868   -0.1526 H   0  0
   -3.8802   -0.9257   -2.4454 H   0  0
   -3.7050   -2.4974   -3.2614 H   0  0
   -2.3872   -1.3036   -3.3370 H   0  0
   -1.4846   -4.3847   -4.2953 H   0  0
   -3.1521   -3.9384   -3.8625 H   0  0
   -2.7294   -5.6460   -4.1327 H   0  0
   -3.6374   -5.6683    0.8022 H   0  0
   -2.4494   -4.3808    0.4889 H   0  0
   -1.9918   -6.0867    0.2695 H   0  0
   -4.1597   -9.4641   -2.3793 H   0  0
   -2.5264   -9.8245   -2.9872 H   0  0
   -3.5854   -8.7120   -3.8864 H   0  0
   -1.0353   -9.7274    0.1865 H   0  0
   -5.7490   -9.0789    1.7077 H   0  0
   -6.3205   -9.5087    0.0781 H   0  0
   -6.8349   -7.9782    0.8268 H   0  0
  2  3  2  0
  3  4  1  0
  7  8  1  0
  6  9  1  0
  6  5  1  0
 10 11  1  0
 12 13  1  0
 10 13  1  0
 11  6  1  0
  9 12  1  0
 15 16  1  0
 16 17  1  0
 14 17  1  0
 12 15  1  0
 14 13  1  0
 18 19  1  0
 20 21  1  0
 18 21  1  0
 17 20  1  0
  2 22  1  0
 22  1  1  0
 22 23  2  0
  2 24  1  0
  3 25  1  0
  4  5  1  0
  1  5  2  0
  4  7  2  0
  6 26  1  0
  8  9  2  0
 12 27  1  0
 13 28  1  0
 17 29  1  0
 20 30  1  0
 21 31  2  0
 18 32  1  0
 19 14  1  0
 14 33  1  0
  1 34  1  0
  7 35  1  0
  8 36  1  0
 10 37  1  0
 10 38  1  0
 11 39  1  0
 11 40  1  0
 15 41  1  0
 15 42  1  0
 16 43  1  0
 16 44  1  0
 18 45  1  0
 19 46  1  0
 19 47  1  0
 20 48  1  0
 24 49  1  0
 25 50  1  0
 25 51  1  0
 25 52  1  0
 26 53  1  0
 26 54  1  0
 26 55  1  0
 27 56  1  0
 27 57  1  0
 27 58  1  0
 28 59  1  0
 28 60  1  0
 28 61  1  0
 29 62  1  0
 29 63  1  0
 29 64  1  0
 30 65  1  0
 32 66  1  0
 32 67  1  0
 32 68  1  0
M  END
> <Name>
FLF2019_TM27

> <Clean Energy>
65.1283

$$$$
FLF2019_TM28
  SciTegic12132405553D

 72 76  0  0  0  0            999 V2000
    5.4115    4.9237    2.3116 C   0  0
    7.7962    4.8299    1.4640 C   0  0
    7.3654    5.0115    0.2168 C   0  0
    5.9299    5.1071   -0.0543 C   0  0
    4.9745    5.0831    1.0637 C   0  0
    3.5400    5.4354    0.8085 C   0  0  1  0  0  0
    5.4977    5.1796   -1.3156 C   0  0
    4.0605    5.1088   -1.6075 C   0  0
    3.1436    5.1684   -0.6322 C   0  0
    2.1584    3.5501    1.3341 C   0  0
    2.4587    4.9244    1.8141 C   0  0
    1.7204    4.8122   -0.8456 C   0  0
    1.1998    3.7031    0.0864 C   0  0  2  0  0  0
   -0.3787    4.0596    0.4737 C   0  0  1  0  0  0
    0.9182    5.4231   -1.7546 C   0  0
   -0.5959    5.1990   -1.8100 C   0  0
   -1.2235    4.1764   -0.8270 C   0  0  1  0  0  0
   -1.5899    1.5868    0.8880 C   0  0  2  0  0  0
   -1.2393    3.0486    1.4567 C   0  0
   -1.4991    2.7224   -1.3909 C   0  0
   -2.3214    1.7089   -0.4925 C   0  0  2  0  0  0
    6.8379    4.7394    2.5671 C   0  0
    7.2409    4.5636    3.7220 O   0  0
    9.1585    4.7176    1.7180 O   0  0
    8.3530    5.0851   -0.9120 C   0  0
    3.5348    6.9677    1.0184 C   0  0
    1.5388    2.4287   -0.7314 C   0  0
   -2.5845    4.8093   -0.4408 C   0  0
   -1.2807    2.4659   -2.5794 O   0  0
   -3.6089    2.2657   -0.2257 O   0  0
   -2.5320    0.8705    1.8702 C   0  0
   -0.3244    5.0411    0.9627 H   0  0
    1.4317    6.5255   -2.6566 C   0  0
   -0.4236    0.6635    0.8234 C   0  0
    0.4639    0.7272    1.6819 O   0  0
   -0.3785   -0.3242   -0.1641 O   0  0
    0.7911   -1.1369    0.0004 C   0  0
    4.7053    4.9308    3.1419 H   0  0
    6.2133    5.2917   -2.1302 H   0  0
    3.7318    5.0052   -2.6416 H   0  0
    3.0789    3.0455    1.0405 H   0  0
    1.6642    2.9779    2.1192 H   0  0
    1.5681    5.5518    1.7801 H   0  0
    2.8511    4.9044    2.8308 H   0  0
   -1.0717    6.1615   -1.6219 H   0  0
   -0.8360    4.8655   -2.8196 H   0  0
   -2.1821    3.5435    1.6897 H   0  0
   -0.6631    2.9138    2.3720 H   0  0
   -2.4079    0.7366   -0.9775 H   0  0
    9.5462    3.8950    1.1931 H   0  0
    7.8212    5.2356   -1.8515 H   0  0
    8.9197    4.1553   -0.9608 H   0  0
    9.0358    5.9180   -0.7443 H   0  0
    3.8162    7.1951    2.0465 H   0  0
    2.5368    7.3587    0.8204 H   0  0
    4.2478    7.4308    0.3362 H   0  0
    1.2182    1.5457   -0.1785 H   0  0
    2.6145    2.3802   -0.9003 H   0  0
    1.0220    2.4637   -1.6905 H   0  0
   -3.1057    4.1539    0.2569 H   0  0
   -3.1914    4.9418   -1.3365 H   0  0
   -2.4149    5.7781    0.0292 H   0  0
   -3.4978    3.1786    0.2810 H   0  0
   -2.7714   -0.1214    1.4870 H   0  0
   -3.4498    1.4480    1.9809 H   0  0
   -2.0433    0.7764    2.8400 H   0  0
    2.5131    6.6096   -2.5489 H   0  0
    0.9648    7.4703   -2.3783 H   0  0
    1.1874    6.2912   -3.6927 H   0  0
    0.8142   -1.9024   -0.7751 H   0  0
    0.7679   -1.6138    0.9803 H   0  0
    1.6815   -0.5133   -0.0787 H   0  0
  2  3  2  0
  3  4  1  0
  7  8  1  0
  6  9  1  0
  6  5  1  0
 10 11  1  0
 12 13  1  0
 10 13  1  0
 11  6  1  0
  9 12  1  0
 15 16  1  0
 16 17  1  0
 14 17  1  0
 14 13  1  0
 18 19  1  0
 20 21  1  0
 18 21  1  0
 17 20  1  0
  2 22  1  0
 22  1  1  0
 22 23  2  0
  2 24  1  0
  3 25  1  0
  4  5  1  0
  1  5  2  0
  4  7  2  0
  6 26  1  0
  8  9  2  0
 13 27  1  0
 17 28  1  0
 18 31  1  0
 19 14  1  0
 14 32  1  0
 12 15  2  0
 15 33  1  0
 18 34  1  0
 34 35  2  0
 34 36  1  0
 36 37  1  0
 20 29  2  0
 21 30  1  0
  1 38  1  0
  7 39  1  0
  8 40  1  0
 10 41  1  0
 10 42  1  0
 11 43  1  0
 11 44  1  0
 16 45  1  0
 16 46  1  0
 19 47  1  0
 19 48  1  0
 21 49  1  0
 24 50  1  0
 25 51  1  0
 25 52  1  0
 25 53  1  0
 26 54  1  0
 26 55  1  0
 26 56  1  0
 27 57  1  0
 27 58  1  0
 27 59  1  0
 28 60  1  0
 28 61  1  0
 28 62  1  0
 30 63  1  0
 31 64  1  0
 31 65  1  0
 31 66  1  0
 33 67  1  0
 33 68  1  0
 33 69  1  0
 37 70  1  0
 37 71  1  0
 37 72  1  0
M  END
> <Name>
FLF2019_TM28

> <Clean Energy>
155.656

$$$$
FLF2019_TM29
  SciTegic12132405553D

 74 78  0  0  0  0            999 V2000
    5.3527    4.6889    1.1727 C   0  0
    7.6019    3.9325    0.2898 C   0  0
    7.0968    3.8466   -0.9400 C   0  0
    5.6804    4.1306   -1.1692 C   0  0
    4.8361    4.5807   -0.0505 C   0  0
    3.4516    5.0853   -0.3305 C   0  0  1  0  0  0
    5.1562    3.9322   -2.3815 C   0  0
    3.7072    4.0226   -2.5749 C   0  0
    2.9022    4.4983   -1.6163 C   0  0
    1.9364    3.6079    0.7815 C   0  0
    2.3968    5.0218    0.8269 C   0  0
    1.4463    4.2651   -1.6351 C   0  0
    0.9252    3.4833   -0.4220 C   0  0  2  0  0  0
   -0.6274    4.0018   -0.0688 C   0  0  1  0  0  0
    0.6215    4.7015   -2.6162 C   0  0
   -0.9030    4.6201   -2.5102 C   0  0
   -1.5595    3.8500   -1.3252 C   0  0  1  0  0  0
   -1.8705    1.7724    0.9979 C   0  0  2  0  0  0
   -1.4392    3.3031    1.1756 C   0  0
   -1.8940    2.2726   -1.5865 C   0  0  1  0  0  0
   -2.6986    1.6250   -0.3187 C   0  0  2  0  0  0
    6.7470    4.3279    1.4100 C   0  0
    7.2180    4.4011    2.5503 O   0  0
    8.9415    3.6355    0.5113 O   0  0
    7.9746    3.4184   -2.0803 C   0  0
    3.6754    6.5984   -0.5594 C   0  0
    1.2108    2.0275   -0.8864 C   0  0
   -2.8938    4.6068   -1.1171 C   0  0
   -2.7108    2.1431   -2.7496 O   0  0
   -3.9555    2.2785   -0.1474 O   0  0
   -2.7717    1.3694    2.1766 C   0  0
   -0.5142    5.0699    0.1610 H   0  0
    1.1477    5.4822   -3.8014 C   0  0
   -0.7477    0.7956    1.1024 C   0  0
    0.1831    1.0115    1.8876 O   0  0
   -0.7868   -0.3954    0.3728 O   0  0
    0.3600   -1.2014    0.6819 C   0  0
    4.7344    5.0469    1.9960 H   0  0
    5.8061    3.7032   -3.2261 H   0  0
    3.2744    3.6955   -3.5204 H   0  0
    2.7864    2.9437    0.6248 H   0  0
    1.4385    3.3475    1.7155 H   0  0
    1.5709    5.7089    0.6425 H   0  0
    2.8554    5.2539    1.7881 H   0  0
   -1.2706    5.6451   -2.4618 H   0  0
   -1.2578    4.1492   -3.4269 H   0  0
   -2.3473    3.8826    1.3414 H   0  0
   -0.8024    3.3642    2.0581 H   0  0
   -0.9625    1.7273   -1.7383 H   0  0
   -2.8724    0.5664   -0.5119 H   0  0
    9.1320    2.6428    0.2271 H   0  0
    7.3934    3.4064   -3.0023 H   0  0
    8.3645    2.4195   -1.8841 H   0  0
    8.8042    4.1179   -2.1834 H   0  0
    4.0713    7.0493    0.3505 H   0  0
    2.7277    7.0717   -0.8162 H   0  0
    4.3853    6.7420   -1.3740 H   0  0
    0.8888    1.3293   -0.1138 H   0  0
    2.2794    1.9051   -1.0634 H   0  0
    0.6648    1.8259   -1.8080 H   0  0
   -3.4482    4.1483   -0.2982 H   0  0
   -3.4871    4.5561   -2.0301 H   0  0
   -2.6869    5.6495   -0.8761 H   0  0
   -3.7974    3.3009    0.0321 H   0  0
   -3.0716    0.3275    2.0656 H   0  0
   -3.6587    2.0029    2.1896 H   0  0
   -2.2246    1.4918    3.1114 H   0  0
    2.2375    5.4794   -3.7841 H   0  0
    0.7867    6.5094   -3.7497 H   0  0
    0.7983    5.0208   -4.7251 H   0  0
    0.3195   -2.1271    0.1079 H   0  0
    0.3645   -1.4347    1.7466 H   0  0
    1.2681   -0.6554    0.4261 H   0  0
   -2.9067    1.1272   -2.9290 H   0  0
  2  3  2  0
  3  4  1  0
  7  8  1  0
  6  9  1  0
  6  5  1  0
 10 11  1  0
 12 13  1  0
 10 13  1  0
 11  6  1  0
  9 12  1  0
 15 16  1  0
 16 17  1  0
 14 17  1  0
 14 13  1  0
 18 19  1  0
 20 21  1  0
 18 21  1  0
 17 20  1  0
  2 22  1  0
 22  1  1  0
 22 23  2  0
  2 24  1  0
  3 25  1  0
  4  5  1  0
  1  5  2  0
  4  7  2  0
  6 26  1  0
  8  9  2  0
 13 27  1  0
 17 28  1  0
 18 31  1  0
 19 14  1  0
 14 32  1  0
 12 15  2  0
 15 33  1  0
 18 34  1  0
 34 35  2  0
 34 36  1  0
 36 37  1  0
 21 30  1  0
 20 29  1  0
  1 38  1  0
  7 39  1  0
  8 40  1  0
 10 41  1  0
 10 42  1  0
 11 43  1  0
 11 44  1  0
 16 45  1  0
 16 46  1  0
 19 47  1  0
 19 48  1  0
 20 49  1  0
 21 50  1  0
 24 51  1  0
 25 52  1  0
 25 53  1  0
 25 54  1  0
 26 55  1  0
 26 56  1  0
 26 57  1  0
 27 58  1  0
 27 59  1  0
 27 60  1  0
 28 61  1  0
 28 62  1  0
 28 63  1  0
 30 64  1  0
 31 65  1  0
 31 66  1  0
 31 67  1  0
 33 68  1  0
 33 69  1  0
 33 70  1  0
 37 71  1  0
 37 72  1  0
 37 73  1  0
 29 74  1  0
M  END
> <Name>
FLF2019_TM29

> <Clean Energy>
131.936

$$$$
FLF2019_TM31
  DSViewer          3D                             0

 83 88  0  0  0  0  0  0  0  0999 V2000
    7.6574    3.4159    4.7676 C   0  0
   10.1228    3.6235    5.0988 C   0  0  1  0  0  0
   10.4852    2.6930    3.9405 C   0  0  1  0  0  0
    9.4067    3.1272    2.9606 C   0  0  2  0  0  0
    7.9484    2.7177    3.4694 C   0  0  2  0  0  0
    6.7698    3.0709    2.4599 C   0  0  1  0  0  0
    9.6005    2.4347    1.5804 C   0  0
    8.4916    2.7859    0.5398 C   0  0
    7.1242    2.2901    1.0935 C   0  0  2  0  0  0
    4.2583    2.6980    1.9008 C   0  0
    5.4150    2.5046    2.9776 C   0  0
    5.9590    2.3943   -0.0356 C   0  0  2  0  0  0
    4.5853    1.8537    0.6156 C   0  0  2  0  0  0
    3.3780    2.0477   -0.5468 C   0  0  1  0  0  0
    6.2799    1.4994   -1.2749 C   0  0
    5.1614    1.7144   -2.3571 C   0  0
    3.7189    1.2859   -1.9078 C   0  0  1  0  0  0
    1.4999    0.1015   -0.1510 C   0  0  2  0  0  0
    1.8506    1.6439   -0.2098 C   0  0
    3.5345   -0.2814   -1.7645 C   0  0
    1.9930   -0.5547   -1.4825 C   0  0
    8.7687    3.2242    5.7486 C   0  0  2  0  0  0
    8.8546    1.8721    6.2024 O   0  0
   11.1189    3.5703    6.1209 O   0  0
   11.8773    3.0814    3.3796 C   0  0
    6.5821    4.6328    2.3544 C   0  0
    4.8641    0.3937    1.1105 C   0  0
    2.7423    1.7286   -3.0322 C   0  0
   -0.0325   -0.0065   -0.0762 C   0  0
    3.3718    3.1176   -0.7438 H   0  0
    5.8352    3.8622   -0.5951 C   0  0
    1.9658   -0.6259    1.0627 C   0  0
    1.9084   -0.0768    2.1690 O   0  0
    2.4074   -1.9417    0.9611 O   0  0
    7.2399    1.2400    1.3567 H   0  0
    7.9609    1.6256    3.5860 H   0  0
    9.7264    4.6584    2.9774 C   0  0
   10.0145    4.9484    4.4426 O   0  0
    6.7376    3.0113    5.1898 H   0  0
    7.5323    4.4818    4.5770 H   0  0
   10.4154    1.6384    4.2070 H   0  0
    9.5986    1.3556    1.7339 H   0  0
   10.5637    2.7427    1.1735 H   0  0
    8.4578    3.8647    0.3879 H   0  0
    8.7061    2.2915   -0.4076 H   0  0
    3.3107    2.3633    2.3229 H   0  0
    4.1852    3.7521    1.6330 H   0  0
    5.1385    3.0272    3.8933 H   0  0
    5.5313    1.4412    3.1865 H   0  0
    6.3023    0.4519   -0.9743 H   0  0
    7.2486    1.7800   -1.6884 H   0  0
    5.1361    2.7737   -2.6126 H   0  0
    5.4279    1.1335   -3.2400 H   0  0
    1.2175    2.0940   -0.9745 H   0  0
    1.6066    2.0717    0.7626 H   0  0
    4.1365   -0.6530   -0.9353 H   0  0
    3.8384   -0.7780   -2.6859 H   0  0
    1.4096   -0.1484   -2.3087 H   0  0
    1.8350   -1.6314   -1.4204 H   0  0
    8.5904    3.8701    6.6084 H   0  0
    9.0570    1.2412    5.3879 H   0  0
   10.8685    4.2403    6.8896 H   0  0
   12.6517    2.7708    4.0809 H   0  0
   11.9253    4.1615    3.2410 H   0  0
   12.0350    2.5852    2.4219 H   0  0
    6.3476    5.0384    3.3385 H   0  0
    5.7664    4.8556    1.6665 H   0  0
    7.5022    5.0858    1.9850 H   0  0
    3.9604   -0.0167    1.5608 H   0  0
    5.6643    0.4071    1.8506 H   0  0
    5.1620   -0.2264    0.2650 H   0  0
    1.7243    1.4496   -2.7606 H   0  0
    3.0162    1.2377   -3.9661 H   0  0
    2.8004    2.8096   -3.1598 H   0  0
   -0.3216   -1.0566   -0.0338 H   0  0
   -0.4734    0.4558   -0.9594 H   0  0
   -0.3900    0.5046    0.8177 H   0  0
    6.7900    4.1712   -1.0204 H   0  0
    5.5632    4.5386    0.2152 H   0  0
    5.0668    3.8936   -1.3675 H   0  0
    3.3881   -2.0118    1.3299 H   0  0
   10.5957    4.8810    2.3586 H   0  0
    8.8723    5.2379    2.6269 H   0  0
  3  4  1  0  0  0
  7  8  1  0  0  0
  6  9  1  0  0  0
  6  5  1  0  0  0
 10 11  1  0  0  0
 12 13  1  0  0  0
 10 13  1  0  0  0
 11  6  1  0  0  0
  9 12  1  0  0  0
 15 16  1  0  0  0
 16 17  1  0  0  0
 14 17  1  0  0  0
 14 13  1  0  0  0
 18 19  1  0  0  0
 20 21  1  0  0  0
 18 21  1  0  0  0
 17 20  1  0  0  0
  2 22  1  0  0  0
 22  1  1  0  0  0
  4  5  1  0  0  0
  6 26  1  0  0  0
 13 27  1  0  0  0
 17 28  1  0  0  0
 18 29  1  0  0  0
 19 14  1  0  0  0
 14 30  1  0  0  0
 12 15  1  0  0  0
 12 31  1  0  0  0
  8  9  1  0  0  0
 32 34  1  0  0  0
 32 33  2  0  0  0
  1  5  1  0  0  0
  2  3  1  0  0  0
  4  7  1  0  0  0
 22 23  1  0  0  0
  2 24  1  0  0  0
  3 25  1  0  0  0
 18 32  1  0  0  0
  9 35  1  0  0  0
  5 36  1  0  0  0
  4 37  1  0  0  0
 37 38  1  0  0  0
  2 38  1  0  0  0
  1 39  1  0  0  0
  1 40  1  0  0  0
  3 41  1  0  0  0
  7 42  1  0  0  0
  7 43  1  0  0  0
  8 44  1  0  0  0
  8 45  1  0  0  0
 10 46  1  0  0  0
 10 47  1  0  0  0
 11 48  1  0  0  0
 11 49  1  0  0  0
 15 50  1  0  0  0
 15 51  1  0  0  0
 16 52  1  0  0  0
 16 53  1  0  0  0
 19 54  1  0  0  0
 19 55  1  0  0  0
 20 56  1  0  0  0
 20 57  1  0  0  0
 21 58  1  0  0  0
 21 59  1  0  0  0
 22 60  1  0  0  0
 23 61  1  0  0  0
 24 62  1  0  0  0
 25 63  1  0  0  0
 25 64  1  0  0  0
 25 65  1  0  0  0
 26 66  1  0  0  0
 26 67  1  0  0  0
 26 68  1  0  0  0
 27 69  1  0  0  0
 27 70  1  0  0  0
 27 71  1  0  0  0
 28 72  1  0  0  0
 28 73  1  0  0  0
 28 74  1  0  0  0
 29 75  1  0  0  0
 29 76  1  0  0  0
 29 77  1  0  0  0
 31 78  1  0  0  0
 31 79  1  0  0  0
 31 80  1  0  0  0
 34 81  1  0  0  0
 37 82  1  0  0  0
 37 83  1  0  0  0
M  END
> <Clean Energy>
1.58709e+06

$$$$
FLF2019_TM11
  SciTegic12132405553D

 73 77  0  0  0  0            999 V2000
   -6.0626    1.4762    0.3819 C   0  0
   -6.0192    0.1858    0.0581 C   0  0
   -4.7233   -0.4605   -0.1472 C   0  0
   -3.6020    0.2451   -0.0083 C   0  0
   -3.6480    1.6179    0.3394 C   0  0
   -4.8181    2.2265    0.5305 C   0  0
   -2.3130   -0.3383   -0.2052 C   0  0
   -1.0788    0.4474   -0.0537 C   0  0
   -1.2210    1.7836    0.3120 C   0  0
   -2.5025    2.3034    0.4793 O   0  0
   -0.2119    2.8836    0.6014 C   0  0
    1.0923    2.7396    0.7650 C   0  0
    1.9585    3.8826    1.0598 C   0  0
    1.4347    5.0976    1.1824 C   0  0
    0.0005    5.2802    1.0280 C   0  0
   -0.7781    4.2348    0.7577 C   0  0
   -0.5579    6.5466    1.1625 O   0  0
    2.2523    6.1874    1.4605 O   0  0
   -7.2868    2.1057    0.5783 O   0  0
   -4.6783   -1.8095   -0.4890 O   0  0
   -2.2205   -1.5329   -0.5201 O   0  0
    0.0696   -0.4407   -0.3709 O   0  0
    1.8691    0.7496   -1.6841 C   0  0  1  0  0  0
    1.4827   -0.1734   -0.4730 C   0  0  1  0  0  0
    2.1372    0.1610    0.6861 O   0  0
    3.5666   -0.1886    0.4890 C   0  0  2  0  0  0
    4.0208   -0.1584   -1.0489 C   0  0  1  0  0  0
    3.3996    1.0750   -1.5834 C   0  0  1  0  0  0
    1.5584   -0.0437   -2.8298 O   0  0
    3.8468    1.4756   -2.8790 O   0  0
    5.4494   -0.1513   -1.0836 O   0  0
    3.8693   -1.6103    0.9933 C   0  0
    5.2819   -1.9136    0.8474 O   0  0
    4.1271   -4.2401   -1.0059 C   0  0  1  0  0  0
    3.7332   -5.3773   -0.0281 C   0  0  1  0  0  0
    3.8906   -4.8781    1.4272 C   0  0  2  0  0  0
    5.3648   -4.4578    1.6205 C   0  0  2  0  0  0
    5.7607   -3.3324    0.5948 C   0  0  1  0  0  0
    5.5058   -3.8311   -0.7669 O   0  0
    3.5547   -5.9259    2.3379 O   0  0
    3.9767   -4.7266   -2.4570 C   0  0
    2.3777   -5.7649   -0.2602 O   0  0
    6.1561   -5.6179    1.3473 O   0  0
   -6.9415   -0.3844   -0.0531 H   0  0
   -4.8464    3.2829    0.7975 H   0  0
    1.5329    1.7465    0.6783 H   0  0
    3.0322    3.7370    1.1785 H   0  0
   -1.8529    4.3809    0.6501 H   0  0
   -0.3574    6.9176    2.1241 H   0  0
    2.7440    6.0323    2.3753 H   0  0
   -7.8561    2.0474   -0.3021 H   0  0
   -5.1341   -2.3780    0.2670 H   0  0
    1.2780    1.6654   -1.6762 H   0  0
    1.9091   -1.1404   -0.7398 H   0  0
    4.1795    0.5184    1.0482 H   0  0
    3.6351   -1.0327   -1.5732 H   0  0
    3.5511    1.8925   -0.8785 H   0  0
    2.1247   -0.9277   -2.8080 H   0  0
    4.8816    1.6522   -2.8536 H   0  0
    5.8080    0.6985   -0.5818 H   0  0
    3.5940   -1.6833    2.0454 H   0  0
    3.2873   -2.3272    0.4142 H   0  0
    3.4683   -3.3867   -0.8452 H   0  0
    4.3868   -6.2347   -0.1888 H   0  0
    3.2384   -4.0211    1.5951 H   0  0
    5.5315   -4.1163    2.6421 H   0  0
    6.8467   -3.2702    0.6637 H   0  0
    2.5602   -6.2230    2.1790 H   0  0
    4.2545   -3.9242   -3.1404 H   0  0
    2.9414   -5.0155   -2.6385 H   0  0
    4.6274   -5.5854   -2.6221 H   0  0
    1.7462   -4.9402   -0.1066 H   0  0
    5.8942   -6.3857    2.0139 H   0  0
  1  2  2  0
  2  3  1  0
  3  4  2  0
  4  5  1  0
  5  6  2  0
  6  1  1  0
  4  7  1  0
  7  8  1  0
  8  9  2  0
  9 10  1  0
 10  5  1  0
  9 11  1  0
 11 12  2  0
 12 13  1  0
 13 14  2  0
 14 15  1  0
 15 16  2  0
 16 11  1  0
 15 17  1  0
 14 18  1  0
  1 19  1  0
  3 20  1  0
  7 21  2  0
  8 22  1  0
 23 24  1  0
 24 25  1  0
 26 25  1  0
 27 26  1  0
 27 28  1  0
 28 23  1  0
 24 22  1  0
 23 29  1  0
 28 30  1  0
 27 31  1  0
 26 32  1  0
 32 33  1  0
 34 35  1  0
 35 36  1  0
 36 37  1  0
 38 37  1  0
 38 39  1  0
 39 34  1  0
 38 33  1  0
 36 40  1  0
 34 41  1  0
 35 42  1  0
 37 43  1  0
  2 44  1  0
  6 45  1  0
 12 46  1  0
 13 47  1  0
 16 48  1  0
 17 49  1  0
 18 50  1  0
 19 51  1  0
 20 52  1  0
 23 53  1  0
 24 54  1  0
 26 55  1  0
 27 56  1  0
 28 57  1  0
 29 58  1  0
 30 59  1  0
 31 60  1  0
 32 61  1  0
 32 62  1  0
 34 63  1  0
 35 64  1  0
 36 65  1  0
 37 66  1  0
 38 67  1  0
 40 68  1  0
 41 69  1  0
 41 70  1  0
 41 71  1  0
 42 72  1  0
 43 73  1  0
M  END
> <Name>
FLF2019_TM11

> <Clean Energy>
70.0608596801758

$$$$
FLF2019_TM13
  SciTegic12132405553D

 80 84  0  0  0  0            999 V2000
   -5.3393   -1.3439   -0.1936 C   0  0
   -5.2296   -2.8414   -0.0296 C   0  0
   -3.9473   -3.5284   -0.4133 C   0  0  1  0  0  0
   -2.7627   -2.8713    0.3137 C   0  0  2  0  0  0
   -2.7549   -1.3244   -0.0989 C   0  0  1  0  0  0
   -4.0695   -0.6438    0.3661 C   0  0
   -1.4334   -3.4969   -0.1792 C   0  0
   -0.1891   -2.7579    0.4255 C   0  0
   -0.1900   -1.2791   -0.0779 C   0  0  1  0  0  0
   -1.5160   -0.5000    0.4502 C   0  0  1  0  0  0
    1.1897   -0.5399    0.2489 C   0  0  2  0  0  0
    1.0939    0.9180   -0.3230 C   0  0  1  0  0  0
   -0.1516    1.6688    0.2726 C   0  0
   -1.4769    0.9223   -0.1651 C   0  0
    2.4237   -1.2939   -0.4890 C   0  0
    3.6530   -0.3485   -0.9810 C   0  0
    3.8704    0.9129   -0.1286 C   0  0  2  0  0  0
    2.4548    1.6959    0.0902 C   0  0  1  0  0  0
    4.9167    1.8588   -0.7777 C   0  0
    4.9566    3.1703   -0.0277 C   0  0
    3.6520    3.9134    0.1865 C   0  0
    2.4867    3.1320   -0.4766 C   0  0
    6.0326    3.7383    0.1862 O   0  0
    3.7729    5.3291   -0.4032 C   0  0
    3.4050    4.0967    1.7027 C   0  0
    4.4971    0.4968    1.2437 C   0  0
    0.8619    0.9044   -1.8933 C   0  0
    1.4597   -0.5270    1.7964 C   0  0
   -1.6615   -0.2796    2.0079 C   0  0
   -2.9443   -3.1813    1.8426 C   0  0
   -6.2534   -3.5195    0.1591 O   0  0
   -4.0258   -5.0434   -0.1473 C   0  0
   -5.4440   -1.1053   -1.2519 H   0  0
   -6.2148   -0.9865    0.3484 H   0  0
   -3.8010   -3.3858   -1.4840 H   0  0
   -2.7263   -1.2747   -1.1874 H   0  0
   -4.1088   -0.6696    1.4551 H   0  0
   -4.0645    0.3920    0.0267 H   0  0
   -1.4029   -4.5444    0.1206 H   0  0
   -1.3918   -3.4282   -1.2662 H   0  0
   -0.2463   -2.7745    1.5139 H   0  0
    0.7253   -3.2548    0.1016 H   0  0
   -0.2683   -1.3220   -1.1643 H   0  0
   -0.0832    1.6795    1.3604 H   0  0
   -0.1713    2.6926   -0.1009 H   0  0
   -2.3409    1.4889    0.1820 H   0  0
   -1.5049    0.8455   -1.2521 H   0  0
    2.8278   -2.0291    0.2068 H   0  0
    2.0250   -1.8037   -1.3661 H   0  0
    4.5684   -0.9395   -0.9534 H   0  0
    3.4524   -0.0359   -2.0058 H   0  0
    2.3784    1.8284    1.1694 H   0  0
    5.9002    1.3904   -0.7398 H   0  0
    4.6417    2.0441   -1.8160 H   0  0
    1.5423    3.6311   -0.2594 H   0  0
    2.6391    3.0953   -1.5553 H   0  0
    2.8374    5.8674   -0.2517 H   0  0
    3.9842    5.2619   -1.4704 H   0  0
    4.5831    5.8624    0.0943 H   0  0
    2.4674    4.6308    1.8566 H   0  0
    4.2242    4.6690    2.1382 H   0  0
    3.3492    3.1198    2.1830 H   0  0
    4.6553    1.3847    1.8557 H   0  0
    5.4520   -0.0002    1.0719 H   0  0
    3.8213   -0.1845    1.7607 H   0  0
    0.7997    1.9286   -2.2608 H   0  0
   -0.0671    0.3808   -2.1192 H   0  0
    1.6935    0.3943   -2.3795 H   0  0
    2.4032   -0.0194    1.9969 H   0  0
    1.5134   -1.5514    2.1650 H   0  0
    0.6502   -0.0011    2.3026 H   0  0
   -2.5905    0.2515    2.2150 H   0  0
   -0.8188    0.3077    2.3726 H   0  0
   -1.6758   -1.2458    2.5123 H   0  0
   -2.1244   -2.7339    2.4044 H   0  0
   -2.9442   -4.2602    1.9976 H   0  0
   -3.8906   -2.7651    2.1883 H   0  0
   -3.0848   -5.5125   -0.4344 H   0  0
   -4.8389   -5.4737   -0.7319 H   0  0
   -4.2095   -5.2176    0.9129 H   0  0
  1  2  1  0
  2  3  1  0
  3  4  1  0
  4  5  1  0
  5  6  1  0
  6  1  1  0
  4  7  1  0
  7  8  1  0
  8  9  1  0
  9 10  1  0
 10  5  1  0
  9 11  1  0
 11 12  1  0
 12 13  1  0
 13 14  1  0
 14 10  1  0
 11 15  1  0
 15 16  1  0
 16 17  1  0
 17 18  1  0
 18 12  1  0
 17 19  1  0
 19 20  1  0
 20 21  1  0
 21 22  1  0
 22 18  1  0
 20 23  2  0
 21 24  1  0
 21 25  1  0
 17 26  1  0
 12 27  1  0
 11 28  1  0
 10 29  1  0
  4 30  1  0
  2 31  2  0
  3 32  1  0
  1 33  1  0
  1 34  1  0
  3 35  1  0
  5 36  1  0
  6 37  1  0
  6 38  1  0
  7 39  1  0
  7 40  1  0
  8 41  1  0
  8 42  1  0
  9 43  1  0
 13 44  1  0
 13 45  1  0
 14 46  1  0
 14 47  1  0
 15 48  1  0
 15 49  1  0
 16 50  1  0
 16 51  1  0
 18 52  1  0
 19 53  1  0
 19 54  1  0
 22 55  1  0
 22 56  1  0
 24 57  1  0
 24 58  1  0
 24 59  1  0
 25 60  1  0
 25 61  1  0
 25 62  1  0
 26 63  1  0
 26 64  1  0
 26 65  1  0
 27 66  1  0
 27 67  1  0
 27 68  1  0
 28 69  1  0
 28 70  1  0
 28 71  1  0
 29 72  1  0
 29 73  1  0
 29 74  1  0
 30 75  1  0
 30 76  1  0
 30 77  1  0
 32 78  1  0
 32 79  1  0
 32 80  1  0
M  END
> <Name>
FLF2019_TM13

> <Clean Energy>
118.868019104004

$$$$
FLF2014_MD01
  SciTegic12132405553D

 80 79  0  0  0  0            999 V2000
  -12.9498    0.1190    0.0090 C   0  0
  -11.6575    0.4652    0.0187 C   0  0
  -13.9855    1.1970    0.0067 C   0  0
  -13.3985   -1.3254    0.0000 C   0  0
  -10.5559   -0.5634    0.0215 C   0  0
   -9.1777    0.1389    0.0326 C   0  0
   -7.9884   -0.8173    0.0359 C   0  0
   -6.7678   -0.2575    0.0533 C   0  0
   -8.2123   -2.3477    0.0201 C   0  0
   -5.4912   -1.0605    0.0592 C   0  0
   -4.2651   -0.1185    0.1089 C   0  0
   -2.9208   -0.8434    0.1183 C   0  0
   -1.8244   -0.0744    0.0249 C   0  0
   -2.8598   -2.3838    0.2267 C   0  0
   -0.4192   -0.6275    0.0137 C   0  0
    0.5925    0.5129   -0.1299 C   0  0
    2.0001   -0.0409   -0.1438 C   0  0
    3.0773    0.7349   -0.3246 C   0  0
    2.9304    2.2550   -0.5306 C   0  0
    4.4417    0.0360   -0.3177 C   0  0
    5.6374    0.9660   -0.0088 C   0  0
    6.9275    0.1780   -0.0273 C   0  0
    8.1227    0.7554    0.1536 C   0  0
    9.3468   -0.1691    0.1164 C   0  0
    8.2326    2.2771    0.3915 C   0  0
   10.7078    0.5490   -0.0180 C   0  0
   11.8241   -0.4651   -0.0318 C   0  0
   13.1119   -0.1035   -0.0607 C   0  0
   14.1604   -1.1696   -0.0682 C   0  0
   13.5438    1.3455   -0.0835 C   0  0
  -11.4004    1.4940    0.0247 H   0  0
  -14.9980    0.7680    0.0068 H   0  0
  -13.8294    1.8342   -0.8750 H   0  0
  -13.8296    1.8389    0.8852 H   0  0
  -14.4958   -1.3896   -0.0073 H   0  0
  -12.9857   -1.8361    0.8830 H   0  0
  -12.9743   -1.8288   -0.8818 H   0  0
  -10.6710   -1.2061    0.9080 H   0  0
  -10.6605   -1.1991   -0.8713 H   0  0
   -9.0807    0.7958   -0.8427 H   0  0
   -9.0908    0.7898    0.9134 H   0  0
   -6.6983    0.8008    0.0639 H   0  0
   -7.2834   -2.9220    0.0192 H   0  0
   -8.8136   -2.6064   -0.8639 H   0  0
   -8.8208   -2.6225    0.8945 H   0  0
   -5.5031   -1.7327    0.9303 H   0  0
   -5.4621   -1.6861   -0.8457 H   0  0
   -4.2738    0.5711   -0.7466 H   0  0
   -4.3157    0.5091    1.0090 H   0  0
   -1.9516    0.9761   -0.0477 H   0  0
   -1.8423   -2.7702    0.3176 H   0  0
   -3.3380   -2.8123   -0.6667 H   0  0
   -3.4672   -2.7068    1.0847 H   0  0
   -0.2420   -1.1829    0.9459 H   0  0
   -0.3177   -1.3375   -0.8197 H   0  0
    0.4099    1.0689   -1.0609 H   0  0
    0.4902    1.2199    0.7065 H   0  0
    2.1390   -1.0836   -0.0075 H   0  0
    3.8665    2.7301   -0.8343 H   0  0
    2.5836    2.6959    0.4161 H   0  0
    2.1442    2.4532   -1.2721 H   0  0
    4.3988   -0.7959    0.3996 H   0  0
    4.5952   -0.4061   -1.3112 H   0  0
    5.7047    1.7733   -0.7521 H   0  0
    5.5145    1.4303    0.9809 H   0  0
    6.8844   -0.8695   -0.1881 H   0  0
    9.3460   -0.7543    1.0457 H   0  0
    9.2063   -0.8881   -0.7030 H   0  0
    9.2452    2.5991    0.6405 H   0  0
    7.5349    2.5715    1.1882 H   0  0
    7.8934    2.7921   -0.5203 H   0  0
   10.7425    1.1364   -0.9477 H   0  0
   10.8659    1.2410    0.8223 H   0  0
   11.5805   -1.4971   -0.0142 H   0  0
   15.1678   -0.7288   -0.0776 H   0  0
   14.0049   -1.8108   -0.9471 H   0  0
   14.0189   -1.8111    0.8131 H   0  0
   14.6402    1.4222   -0.1054 H   0  0
   13.1369    1.8559    0.8026 H   0  0
   13.1021    1.8395   -0.9617 H   0  0
  1  2  2  0
  1  3  1  0
  1  4  1  0
  2  5  1  0
  5  6  1  0
  6  7  1  0
  7  8  2  0
  7  9  1  0
  8 10  1  0
 10 11  1  0
 11 12  1  0
 12 13  2  0
 12 14  1  0
 13 15  1  0
 15 16  1  0
 16 17  1  0
 17 18  2  0
 18 19  1  0
 18 20  1  0
 20 21  1  0
 21 22  1  0
 22 23  2  0
 23 24  1  0
 23 25  1  0
 24 26  1  0
 26 27  1  0
 27 28  2  0
 28 29  1  0
 28 30  1  0
  2 31  1  0
  3 32  1  0
  3 33  1  0
  3 34  1  0
  4 35  1  0
  4 36  1  0
  4 37  1  0
  5 38  1  0
  5 39  1  0
  6 40  1  0
  6 41  1  0
  8 42  1  0
  9 43  1  0
  9 44  1  0
  9 45  1  0
 10 46  1  0
 10 47  1  0
 11 48  1  0
 11 49  1  0
 13 50  1  0
 14 51  1  0
 14 52  1  0
 14 53  1  0
 15 54  1  0
 15 55  1  0
 16 56  1  0
 16 57  1  0
 17 58  1  0
 19 59  1  0
 19 60  1  0
 19 61  1  0
 20 62  1  0
 20 63  1  0
 21 64  1  0
 21 65  1  0
 22 66  1  0
 24 67  1  0
 24 68  1  0
 25 69  1  0
 25 70  1  0
 25 71  1  0
 26 72  1  0
 26 73  1  0
 27 74  1  0
 29 75  1  0
 29 76  1  0
 29 77  1  0
 30 78  1  0
 30 79  1  0
 30 80  1  0
M  END
> <Name>
FLF2014_MD01

> <Clean Energy>
203.773

$$$$
FLF2014_MD04
  SciTegic12132405553D

 81 85  0  0  0  0            999 V2000
   -3.5143   -3.3634    2.2837 C   0  0
   -2.9196   -4.6496    2.7195 C   0  0
   -1.4697   -4.8334    2.4685 C   0  0  1  0  0  0
   -0.7086   -3.7570    3.3440 C   0  0  2  0  0  0
   -1.2615   -2.2981    2.8531 C   0  0  1  0  0  0
   -2.8263   -2.2250    3.0647 C   0  0
    0.8047   -3.7861    3.0227 C   0  0
    1.6386   -2.6288    3.6871 C   0  0
    1.1073   -1.2560    3.1203 C   0  0  1  0  0  0
   -0.4944   -1.0230    3.5198 C   0  0  1  0  0  0
    2.0899    0.0188    3.4918 C   0  0  2  0  0  0
    1.5418    1.2976    2.8405 C   0  0  1  0  0  0
    0.0044    1.5718    3.2738 C   0  0
   -0.9474    0.3197    2.8266 C   0  0
    3.6192   -0.2139    2.7949 C   0  0
    4.4829    1.1818    2.3069 C   0  0
    4.3435    2.2832    3.2377 C   0  0  2  0  0  0
    2.6088    2.5788    3.3886 C   0  0  1  0  0  0
    5.1496    3.6369    2.7169 C   0  0
    4.6369    4.7259    3.5944 C   0  0
    3.1371    5.0500    3.1338 C   0  0
    2.3409    3.7764    2.5864 C   0  0
    5.1013    1.7933    4.5685 C   0  0
    1.4562    1.1761    1.1766 C   0  0
    2.2092    0.1946    5.1061 C   0  0
   -0.9017   -0.8307    5.0728 C   0  0
   -0.9195   -4.1335    4.8798 C   0  0
   -1.0606   -6.3171    2.7052 C   0  0
   -3.6129   -5.5541    3.1969 O   0  0
    3.0663    6.0072    1.9341 C   0  0
    2.5095    5.7209    4.3604 C   0  0
   -3.2624   -3.2018    1.2264 H   0  0
   -4.6014   -3.3470    2.4398 H   0  0
   -1.2627   -4.5505    1.4269 H   0  0
   -1.0443   -2.2433    1.7778 H   0  0
   -3.0553   -2.3241    4.1324 H   0  0
   -3.2199   -1.2707    2.6965 H   0  0
    1.2120   -4.7605    3.3183 H   0  0
    0.9230   -3.6563    1.9384 H   0  0
    1.5817   -2.6528    4.7831 H   0  0
    2.6791   -2.7655    3.3746 H   0  0
    1.1369   -1.3352    2.0316 H   0  0
   -0.0551    1.7017    4.3583 H   0  0
   -0.3437    2.4910    2.7857 H   0  0
   -2.0003    0.5150    3.0644 H   0  0
   -0.8577    0.1958    1.7546 H   0  0
    4.1708   -0.9274    3.4221 H   0  0
    3.4850   -0.6643    1.8027 H   0  0
    5.5285    0.9241    2.0952 H   0  0
    4.0422    1.5638    1.4005 H   0  0
    2.4309    2.8645    4.4330 H   0  0
    6.2268    3.4359    2.7832 H   0  0
    4.8949    3.9232    1.6884 H   0  0
    4.6391    4.2939    4.5801 H   0  0
    5.2030    5.6662    3.6223 H   0  0
    1.2833    4.0558    2.5046 H   0  0
    2.7174    3.5088    1.5923 H   0  0
    5.0341    2.5629    5.3439 H   0  0
    6.1574    1.6241    4.3206 H   0  0
    4.7026    0.8823    4.9615 H   0  0
    1.0489    2.1116    0.7742 H   0  0
    0.8087    0.3607    0.8689 H   0  0
    2.4119    1.0045    0.7208 H   0  0
    2.8341    0.9918    5.3918 H   0  0
    2.6216   -0.7267    5.5333 H   0  0
    1.2839    0.3878    5.5454 H   0  0
   -1.9855   -0.6976    5.1487 H   0  0
   -0.4492    0.0391    5.4903 H   0  0
   -0.6104   -1.6643    5.6623 H   0  0
   -0.3945   -3.4479    5.5178 H   0  0
   -0.5196   -5.1338    5.0719 H   0  0
   -1.9859   -4.1181    5.1347 H   0  0
    0.0097   -6.4484    2.4987 H   0  0
   -1.6406   -6.9587    2.0278 H   0  0
   -1.2711   -6.6095    3.7411 H   0  0
    2.0136    6.2185    1.7012 H   0  0
    3.5480    5.5418    1.0628 H   0  0
    3.5837    6.9431    2.1845 H   0  0
    1.4728    6.0022    4.1299 H   0  0
    3.0870    6.6190    4.6183 H   0  0
    2.5219    5.0198    5.2070 H   0  0
  1  2  1  0
  2  3  1  0
  3  4  1  0
  4  5  1  0
  5  6  1  0
  6  1  1  0
  4  7  1  0
  7  8  1  0
  8  9  1  0
  9 10  1  0
 10  5  1  0
  9 11  1  0
 11 12  1  0
 12 13  1  0
 13 14  1  0
 14 10  1  0
 11 15  1  0
 15 16  1  0
 16 17  1  0
 17 18  1  0
 18 12  1  0
 17 19  1  0
 19 20  1  0
 20 21  1  0
 21 22  1  0
 22 18  1  0
 17 23  1  0
 12 24  1  0
 11 25  1  0
 10 26  1  0
  4 27  1  0
  3 28  1  0
  2 29  2  0
 21 30  1  0
 21 31  1  0
  1 32  1  0
  1 33  1  0
  3 34  1  0
  5 35  1  0
  6 36  1  0
  6 37  1  0
  7 38  1  0
  7 39  1  0
  8 40  1  0
  8 41  1  0
  9 42  1  0
 13 43  1  0
 13 44  1  0
 14 45  1  0
 14 46  1  0
 15 47  1  0
 15 48  1  0
 16 49  1  0
 16 50  1  0
 18 51  1  0
 19 52  1  0
 19 53  1  0
 20 54  1  0
 20 55  1  0
 22 56  1  0
 22 57  1  0
 23 58  1  0
 23 59  1  0
 23 60  1  0
 24 61  1  0
 24 62  1  0
 24 63  1  0
 25 64  1  0
 25 65  1  0
 25 66  1  0
 26 67  1  0
 26 68  1  0
 26 69  1  0
 27 70  1  0
 27 71  1  0
 27 72  1  0
 28 73  1  0
 28 74  1  0
 28 75  1  0
 30 76  1  0
 30 77  1  0
 30 78  1  0
 31 79  1  0
 31 80  1  0
 31 81  1  0
M  END
> <Name>
FLF2014_MD04

> <Clean Energy>
199.743

$$$$
FLF2014_MD05
  SciTegic12132405553D

 83 87  0  0  0  0            999 V2000
   -5.2557   -2.2574    0.1533 C   0  0
   -4.8739   -2.7910   -1.0783 C   0  0  1  0  0  0
   -3.5407   -3.7675   -0.7799 C   0  0  1  0  0  0
   -2.4377   -3.1384    0.3244 C   0  0  2  0  0  0
   -2.4923   -1.7084   -0.0075 C   0  0  1  0  0  0
   -4.0146   -1.2029    0.4401 C   0  0
   -1.0597   -3.7161   -0.0541 C   0  0
    0.1562   -2.9500    0.5885 C   0  0
    0.0877   -1.4503    0.0368 C   0  0  1  0  0  0
   -1.3196   -0.7350    0.5625 C   0  0  1  0  0  0
    1.4647   -0.5746    0.3553 C   0  0  2  0  0  0
    1.2561    0.8843   -0.3327 C   0  0  1  0  0  0
   -0.0977    1.5803    0.2545 C   0  0
   -1.4136    0.6766   -0.0792 C   0  0
    2.7746   -1.2637   -0.3242 C   0  0
    4.1006   -0.4515    0.0131 C   0  0
    4.1677    1.0467   -0.4460 C   0  0  2  0  0  0
    2.6522    1.8054    0.0063 C   0  0  1  0  0  0
    4.2927    1.4341   -1.8380 C   0  0
    4.4648    3.1122   -1.8990 C   0  0
    3.5360    4.0512   -0.8617 C   0  0
    2.3417    3.2828   -0.7879 C   0  0
    5.5656    1.4559    0.2254 C   0  0
    0.9865    0.7237   -1.9463 C   0  0
    1.7795   -0.5087    1.9440 C   0  0
   -1.4833   -0.4691    2.1453 C   0  0
   -2.7140   -3.5124    1.8918 C   0  0
   -3.8731   -5.2249   -0.3114 C   0  0
   -5.8670   -3.5474   -1.7941 O   0  0
    3.4131    5.4293   -1.5061 C   0  0
    4.0221    4.3796    0.6164 C   0  0
   -6.1856   -1.6738    0.1362 H   0  0
   -5.3462   -3.0901    0.8602 H   0  0
   -4.6080   -1.8986   -1.6665 H   0  0
   -3.1087   -3.8177   -1.7879 H   0  0
   -2.3668   -1.7169   -1.1010 H   0  0
   -4.0849   -1.0266    1.5182 H   0  0
   -4.1688   -0.2520   -0.0849 H   0  0
   -1.0358   -4.7880    0.1797 H   0  0
   -0.9294   -3.5781   -1.1361 H   0  0
    0.1449   -2.9743    1.6860 H   0  0
    1.0693   -3.4311    0.2219 H   0  0
    0.0192   -1.5258   -1.0463 H   0  0
    0.0011    1.7174    1.3360 H   0  0
   -0.2332    2.5587   -0.2170 H   0  0
   -2.3332    1.1684    0.2621 H   0  0
   -1.4694    0.5578   -1.1562 H   0  0
    2.8951   -2.2717    0.0898 H   0  0
    2.6464   -1.3391   -1.4073 H   0  0
    4.1838   -0.4466    1.0919 H   0  0
    4.9802   -0.9712   -0.3885 H   0  0
    2.7123    1.8877    1.0954 H   0  0
    5.1465    0.9681   -2.3462 H   0  0
    3.4252    1.1474   -2.3299 H   0  0
    5.5000    3.4743   -1.8253 H   0  0
    4.1105    3.2818   -2.9242 H   0  0
    1.5166    3.7983   -0.2838 H   0  0
    2.0849    3.1302   -1.8368 H   0  0
    5.8352    2.4918    0.1124 H   0  0
    6.3578    0.8427   -0.2242 H   0  0
    5.5071    1.2364    1.2999 H   0  0
    0.8331    1.7062   -2.3979 H   0  0
    0.1107    0.1201   -2.1568 H   0  0
    1.8286    0.2433   -2.4275 H   0  0
    2.6801    0.0616    2.1495 H   0  0
    1.9168   -1.5274    2.3266 H   0  0
    1.0096   -0.0423    2.4773 H   0  0
   -2.4597   -0.0151    2.3374 H   0  0
   -0.7454    0.2105    2.5048 H   0  0
   -1.3984   -1.3751    2.7051 H   0  0
   -1.9549   -3.0908    2.5243 H   0  0
   -2.6750   -4.6004    2.0151 H   0  0
   -3.6895   -3.1612    2.2277 H   0  0
   -2.9503   -5.8134   -0.2254 H   0  0
   -4.5319   -5.6943   -1.0542 H   0  0
   -4.3892   -5.2073    0.6561 H   0  0
   -6.1843   -4.3076   -1.2543 H   0  0
    2.7275    6.0491   -0.9119 H   0  0
    3.0207    5.3193   -2.5265 H   0  0
    4.4033    5.9042   -1.5410 H   0  0
    4.1864    3.4986    1.2193 H   0  0
    4.9626    4.9436    0.5587 H   0  0
    3.2583    4.9986    1.1060 H   0  0
  1  2  1  0
  2  3  1  0
  3  4  1  0
  4  5  1  0
  5  6  1  0
  6  1  1  0
  4  7  1  0
  7  8  1  0
  8  9  1  0
  9 10  1  0
 10  5  1  0
  9 11  1  0
 11 12  1  0
 12 13  1  0
 13 14  1  0
 14 10  1  0
 11 15  1  0
 15 16  1  0
 16 17  1  0
 17 18  1  0
 18 12  1  0
 17 19  1  0
 19 20  1  0
 20 21  1  0
 21 22  1  0
 22 18  1  0
 17 23  1  0
 12 24  1  0
 11 25  1  0
 10 26  1  0
  4 27  1  0
  3 28  1  0
 21 30  1  0
 21 31  1  0
  2 29  1  0
  1 32  1  0
  1 33  1  0
  2 34  1  0
  3 35  1  0
  5 36  1  0
  6 37  1  0
  6 38  1  0
  7 39  1  0
  7 40  1  0
  8 41  1  0
  8 42  1  0
  9 43  1  0
 13 44  1  0
 13 45  1  0
 14 46  1  0
 14 47  1  0
 15 48  1  0
 15 49  1  0
 16 50  1  0
 16 51  1  0
 18 52  1  0
 19 53  1  0
 19 54  1  0
 20 55  1  0
 20 56  1  0
 22 57  1  0
 22 58  1  0
 23 59  1  0
 23 60  1  0
 23 61  1  0
 24 62  1  0
 24 63  1  0
 24 64  1  0
 25 65  1  0
 25 66  1  0
 25 67  1  0
 26 68  1  0
 26 69  1  0
 26 70  1  0
 27 71  1  0
 27 72  1  0
 27 73  1  0
 28 74  1  0
 28 75  1  0
 28 76  1  0
 29 77  1  0
 30 78  1  0
 30 79  1  0
 30 80  1  0
 31 81  1  0
 31 82  1  0
 31 83  1  0
M  END
> <Name>
FLF2014_MD05

> <Clean Energy>
197.886

$$$$
FLF2014_MD07
  SciTegic12132405553D

 81 85  0  0  0  0            999 V2000
   -4.8212   -1.5167   -0.5804 C   0  0
   -4.5957   -3.0458   -0.8628 C   0  0  1  0  0  0
   -3.6250   -3.7279    0.1821 C   0  0
   -2.2277   -2.8913    0.0845 C   0  0  1  0  0  0
   -2.3896   -1.2913    0.3329 C   0  0  2  0  0  0
   -3.4258   -0.7747   -0.7008 C   0  0
   -1.0869   -3.4823    1.0419 C   0  0
    0.2733   -2.8111    0.6469 C   0  0
    0.3132   -1.2531    0.8325 C   0  0  2  0  0  0
   -0.9062   -0.6499    0.0102 C   0  0  2  0  0  0
    1.7095   -0.5967    0.1332 C   0  0  1  0  0  0
    1.6630    0.9984    0.2334 C   0  0
    0.4612    1.6260    0.2387 C   0  0
   -0.8973    0.9112    0.2520 C   0  0
    2.9575   -0.9679    0.8740 C   0  0
    4.3241   -0.3764    0.3714 C   0  0
    4.3292    1.1407   -0.1090 C   0  0  2  0  0  0
    3.0581    1.8977    0.5710 C   0  0  1  0  0  0
    4.1625    1.3956   -1.6973 C   0  0
    4.2034    2.9712   -2.0668 C   0  0
    2.9485    3.7114   -1.4642 C   0  0  2  0  0  0
    2.9452    3.5047    0.1451 C   0  0  2  0  0  0
    5.8141    1.5529    0.1903 C   0  0
   -5.8630   -3.7320   -0.8907 O   0  0
    1.7056    3.1835   -2.2472 C   0  0
   -3.3923   -5.1867   -0.2486 C   0  0
   -4.2674   -3.8652    1.6162 C   0  0
   -2.9498   -0.8437    1.7817 C   0  0
    0.3078   -0.9558    2.4107 C   0  0
    4.1105    4.3738    0.7243 C   0  0
    1.8149   -1.1268   -1.3899 C   0  0
   -5.4941   -1.1119   -1.3476 H   0  0
   -5.2744   -1.3714    0.4071 H   0  0
   -4.1307   -3.1207   -1.8548 H   0  0
   -1.8918   -3.0127   -0.9542 H   0  0
   -3.5546    0.3079   -0.5789 H   0  0
   -3.0431   -0.9858   -1.7085 H   0  0
   -1.3398   -3.3285    2.0987 H   0  0
   -0.9706   -4.5532    0.8503 H   0  0
    1.1060   -3.2562    1.2061 H   0  0
    0.3785   -3.0555   -0.4083 H   0  0
   -0.7081   -0.8946   -1.0208 H   0  0
    0.4396    2.6680    0.3683 H   0  0
   -1.2146    1.0872    1.2791 H   0  0
   -1.6244    1.4300   -0.3853 H   0  0
    2.8198   -0.5470    1.8707 H   0  0
    3.0730   -2.0554    0.9643 H   0  0
    4.8511   -0.4252    1.3331 H   0  0
    4.8849   -0.9754   -0.3584 H   0  0
    3.1506    1.8425    1.6644 H   0  0
    4.9900    0.8797   -2.2009 H   0  0
    3.2416    1.0046   -2.0584 H   0  0
    5.1286    3.4013   -1.6772 H   0  0
    4.1833    3.1064   -3.1558 H   0  0
    2.9792    4.7889   -1.6743 H   0  0
    2.0414    3.9430    0.5866 H   0  0
    6.0192    2.5726   -0.0847 H   0  0
    6.4825    0.8963   -0.3819 H   0  0
    6.0098    1.4245    1.2637 H   0  0
   -6.3352   -3.6381   -0.0307 H   0  0
    1.8354    3.4135   -3.3133 H   0  0
    0.8047    3.6877   -1.8730 H   0  0
    1.5857    2.1106   -2.1351 H   0  0
   -2.7023   -5.6801    0.4468 H   0  0
   -2.9680   -5.2018   -1.2614 H   0  0
   -4.3526   -5.7205   -0.2441 H   0  0
   -3.5591   -4.3694    2.2870 H   0  0
   -5.1780   -4.4724    1.5330 H   0  0
   -4.5352   -2.9212    2.0306 H   0  0
   -3.0145    0.2477    1.8267 H   0  0
   -2.3202   -1.1915    2.5679 H   0  0
   -3.9306   -1.2266    1.9551 H   0  0
    0.3324    0.1223    2.6000 H   0  0
    1.1887   -1.4159    2.8697 H   0  0
   -0.5566   -1.3771    2.8805 H   0  0
    4.1160    4.2822    1.8191 H   0  0
    3.9343    5.4223    0.4488 H   0  0
    5.0641    4.0826    0.3405 H   0  0
    2.6849   -0.7485   -1.8699 H   0  0
    0.9438   -0.8140   -1.9684 H   0  0
    1.8833   -2.2169   -1.4036 H   0  0
  1  2  1  0
  2  3  1  0
  3  4  1  0
  4  5  1  0
  5  6  1  0
  6  1  1  0
  4  7  1  0
  7  8  1  0
  8  9  1  0
  9 10  1  0
 10  5  1  0
  9 11  1  0
 11 12  1  0
 12 13  2  0
 13 14  1  0
 14 10  1  0
 11 15  1  0
 15 16  1  0
 16 17  1  0
 17 18  1  0
 18 12  1  0
 17 19  1  0
 19 20  1  0
 20 21  1  0
 21 22  1  0
 22 18  1  0
 17 23  1  0
 21 25  1  0
  2 24  1  0
  3 26  1  0
  3 27  1  0
  5 28  1  0
  9 29  1  0
 22 30  1  0
 11 31  1  0
  1 32  1  0
  1 33  1  0
  2 34  1  0
  4 35  1  0
  6 36  1  0
  6 37  1  0
  7 38  1  0
  7 39  1  0
  8 40  1  0
  8 41  1  0
 10 42  1  0
 13 43  1  0
 14 44  1  0
 14 45  1  0
 15 46  1  0
 15 47  1  0
 16 48  1  0
 16 49  1  0
 18 50  1  0
 19 51  1  0
 19 52  1  0
 20 53  1  0
 20 54  1  0
 21 55  1  0
 22 56  1  0
 23 57  1  0
 23 58  1  0
 23 59  1  0
 24 60  1  0
 25 61  1  0
 25 62  1  0
 25 63  1  0
 26 64  1  0
 26 65  1  0
 26 66  1  0
 27 67  1  0
 27 68  1  0
 27 69  1  0
 28 70  1  0
 28 71  1  0
 28 72  1  0
 29 73  1  0
 29 74  1  0
 29 75  1  0
 30 76  1  0
 30 77  1  0
 30 78  1  0
 31 79  1  0
 31 80  1  0
 31 81  1  0
M  END
> <Name>
FLF2014_MD07

> <Clean Energy>
136.953

$$$$
FLF2014_MD08
  SciTegic12132405553D

 81 85  0  0  0  0            999 V2000
   -4.8746   -0.9182   -0.6767 C   0  0
   -4.7098   -2.3577   -1.2805 C   0  0  1  0  0  0
   -3.6776   -3.2471   -0.4793 C   0  0
   -2.2735   -2.4225   -0.5178 C   0  0  1  0  0  0
   -2.3733   -0.9087    0.0607 C   0  0  2  0  0  0
   -3.4762   -0.1839   -0.7583 C   0  0
   -1.0733   -3.2033    0.1947 C   0  0
    0.2663   -2.4741   -0.1707 C   0  0
    0.3573   -0.9931    0.3174 C   0  0  2  0  0  0
   -0.9145   -0.2335   -0.2598 C   0  0  2  0  0  0
    1.6941   -0.2379   -0.3288 C   0  0  1  0  0  0
    1.6670    1.2781   -0.0970 C   0  0
    0.5074    1.9382    0.1081 C   0  0
   -0.8435    1.2520    0.2584 C   0  0
    3.0449   -0.9056    0.2133 C   0  0
    4.2852   -0.1511   -0.2962 C   0  0
    4.2986    1.3291    0.2147 C   0  0  2  0  0  0
    2.9752    2.1128   -0.2012 C   0  0  1  0  0  0
    5.5323    1.9788   -0.4837 C   0  0
    5.6340    3.5070   -0.1965 C   0  0
    4.3451    4.2341   -0.7163 C   0  0
    3.1291    3.6563    0.0057 C   0  0
    4.4445    1.3756    1.7863 C   0  0
   -5.9917   -3.0126   -1.3462 O   0  0
    4.1706    4.0956   -2.2605 C   0  0
   -3.5153   -4.5874   -1.2160 C   0  0
   -4.2093   -3.6655    0.9444 C   0  0
   -2.8000   -0.7514    1.6109 C   0  0
    0.4925   -0.9951    1.9172 C   0  0
    1.7088   -0.3485   -1.9306 C   0  0
    4.4452    5.7214   -0.3962 C   0  0
   -5.5943   -0.3588   -1.2884 H   0  0
   -5.2452   -0.9728    0.3538 H   0  0
   -4.3247   -2.2316   -2.3019 H   0  0
   -2.0261   -2.3314   -1.5851 H   0  0
   -3.1802   -0.1919   -1.8166 H   0  0
   -3.5662    0.8532   -0.4131 H   0  0
   -1.2343   -3.2663    1.2792 H   0  0
   -0.9994   -4.2130   -0.2187 H   0  0
    1.1282   -3.0322    0.2151 H   0  0
    0.2874   -2.4901   -1.2621 H   0  0
   -0.8175   -0.2784   -1.3393 H   0  0
    0.5359    2.9820    0.2258 H   0  0
   -1.0153    1.2498    1.3376 H   0  0
   -1.6293    1.8733   -0.1855 H   0  0
    3.0763   -0.8668    1.2990 H   0  0
    3.0775   -1.9569   -0.1038 H   0  0
    5.2037   -0.6481    0.0466 H   0  0
    4.2749   -0.1507   -1.3858 H   0  0
    2.5295    2.2463    0.7942 H   0  0
    6.4438    1.4617   -0.1535 H   0  0
    5.4236    1.8466   -1.5622 H   0  0
    5.7307    3.6708    0.8834 H   0  0
    6.5135    3.9235   -0.7063 H   0  0
    3.2356    3.8407    1.0792 H   0  0
    2.2395    4.1737   -0.3649 H   0  0
    4.5042    2.4098    2.1386 H   0  0
    5.3639    0.8431    2.0725 H   0  0
    3.5818    0.8905    2.2611 H   0  0
   -6.3937   -3.0927   -0.4505 H   0  0
    3.2604    4.6335   -2.5602 H   0  0
    4.0792    3.0458   -2.5610 H   0  0
    5.0396    4.5397   -2.7616 H   0  0
   -2.7856   -5.2189   -0.6952 H   0  0
   -3.1711   -4.3961   -2.2418 H   0  0
   -4.4848   -5.1029   -1.2438 H   0  0
   -3.4646   -4.3021    1.4397 H   0  0
   -5.1393   -4.2341    0.8146 H   0  0
   -4.4191   -2.8214    1.5602 H   0  0
   -2.8297    0.3106    1.8746 H   0  0
   -2.1185   -1.2558    2.2562 H   0  0
   -3.7747   -1.1514    1.7880 H   0  0
    0.5615    0.0304    2.2961 H   0  0
    1.3928   -1.5408    2.2108 H   0  0
   -0.3397   -1.4869    2.3742 H   0  0
    2.5777    0.1678   -2.3451 H   0  0
    0.8112    0.1150   -2.3474 H   0  0
    1.7467   -1.4004   -2.2338 H   0  0
    3.5315    6.2270   -0.7378 H   0  0
    5.3174    6.1490   -0.9068 H   0  0
    4.5532    5.8503    0.6908 H   0  0
  1  2  1  0
  2  3  1  0
  3  4  1  0
  4  5  1  0
  5  6  1  0
  6  1  1  0
  4  7  1  0
  7  8  1  0
  8  9  1  0
  9 10  1  0
 10  5  1  0
  9 11  1  0
 11 12  1  0
 12 13  2  0
 13 14  1  0
 14 10  1  0
 11 15  1  0
 15 16  1  0
 16 17  1  0
 17 18  1  0
 18 12  1  0
 17 19  1  0
 19 20  1  0
 20 21  1  0
 21 22  1  0
 22 18  1  0
 17 23  1  0
 21 25  1  0
  2 24  1  0
  3 26  1  0
  3 27  1  0
  5 28  1  0
  9 29  1  0
 11 30  1  0
 21 31  1  0
  1 32  1  0
  1 33  1  0
  2 34  1  0
  4 35  1  0
  6 36  1  0
  6 37  1  0
  7 38  1  0
  7 39  1  0
  8 40  1  0
  8 41  1  0
 10 42  1  0
 13 43  1  0
 14 44  1  0
 14 45  1  0
 15 46  1  0
 15 47  1  0
 16 48  1  0
 16 49  1  0
 18 50  1  0
 19 51  1  0
 19 52  1  0
 20 53  1  0
 20 54  1  0
 22 55  1  0
 22 56  1  0
 23 57  1  0
 23 58  1  0
 23 59  1  0
 24 60  1  0
 25 61  1  0
 25 62  1  0
 25 63  1  0
 26 64  1  0
 26 65  1  0
 26 66  1  0
 27 67  1  0
 27 68  1  0
 27 69  1  0
 28 70  1  0
 28 71  1  0
 28 72  1  0
 29 73  1  0
 29 74  1  0
 29 75  1  0
 30 76  1  0
 30 77  1  0
 30 78  1  0
 31 79  1  0
 31 80  1  0
 31 81  1  0
M  END
> <Name>
FLF2014_MD08

> <Clean Energy>
142.055

$$$$
FLF2014_MD09
  SciTegic12132405553D

 80 83  0  0  0  0            999 V2000
   -6.3848   -2.8361    0.0442 C   0  0
   -6.0068   -4.1794   -0.6302 C   0  0  1  0  0  0
   -4.7343   -4.7678    0.0178 C   0  0
   -3.5946   -3.7762   -0.0313 C   0  0
   -3.8638   -2.3523    0.4055 C   0  0  2  0  0  0
   -5.2127   -1.8538   -0.2080 C   0  0
   -2.3705   -4.2093   -0.3485 C   0  0
   -1.1804   -3.2815   -0.4073 C   0  0
   -1.3514   -1.9810    0.4218 C   0  0  2  0  0  0
   -2.6703   -1.3602   -0.0252 C   0  0  2  0  0  0
   -0.1846   -1.0146    0.1077 C   0  0  1  0  0  0
   -0.3088    0.3358    0.7241 C   0  0  2  0  0  0
   -1.6500    0.9605    0.1783 C   0  0
   -2.8694    0.0893    0.5950 C   0  0
    1.2226   -1.5173    0.5317 C   0  0
    2.0468   -0.1853    0.6091 C   0  0
    1.0811    0.9354    0.0668 C   0  0  2  0  0  0
    1.5366    2.5004    0.3856 C   0  0  2  0  0  0
    0.5308    3.5147   -0.1989 C   0  0
    2.9001    3.0287   -0.2477 C   0  0
    4.2176    2.3349    0.2506 C   0  0
    5.5634    2.9517   -0.3476 C   0  0  2  0  0  0
    6.8052    2.0262    0.2208 C   0  0
    8.2171    2.3977   -0.2961 C   0  0
    6.6587    0.5470   -0.2423 C   0  0
    5.5814    4.5199    0.0936 C   0  0
    6.7396    5.4195   -0.4116 C   0  0
   -4.0089   -2.4258    1.9960 C   0  0
   -7.0720   -5.1140   -0.4788 O   0  0
   -0.3461    0.3919    2.3359 C   0  0
   -7.2948   -2.4379   -0.4240 H   0  0
   -6.5626   -2.9833    1.1167 H   0  0
   -5.8249   -3.9954   -1.6978 H   0  0
   -4.9820   -4.9454    1.0729 H   0  0
   -4.4437   -5.7156   -0.4542 H   0  0
   -5.4550   -0.8619    0.1918 H   0  0
   -5.0906   -1.7872   -1.2974 H   0  0
   -2.2401   -5.2284   -0.6071 H   0  0
   -0.2596   -3.8203   -0.1510 H   0  0
   -1.1065   -2.9739   -1.4594 H   0  0
   -1.3772   -2.1685    1.4967 H   0  0
   -2.6150   -1.2665   -1.1178 H   0  0
   -0.1636   -0.8073   -0.9703 H   0  0
   -1.7639    1.9807    0.5472 H   0  0
   -1.6157    0.9660   -0.9198 H   0  0
   -2.9229    0.0392    1.6810 H   0  0
   -3.7950    0.5354    0.2127 H   0  0
    1.5920   -2.3237   -0.1167 H   0  0
    1.1910   -1.8578    1.5748 H   0  0
    2.1347    0.0207    1.6736 H   0  0
    3.0562   -0.2324    0.1977 H   0  0
    0.9868    0.8096   -1.0200 H   0  0
    1.5973    2.6275    1.4745 H   0  0
    0.8573    4.5311    0.0602 H   0  0
   -0.4563    3.3530    0.2101 H   0  0
    0.5017    3.4080   -1.2923 H   0  0
    2.8398    2.9521   -1.3418 H   0  0
    2.9594    4.0810    0.0342 H   0  0
    4.2644    2.4135    1.3448 H   0  0
    4.1568    1.3060   -0.0322 H   0  0
    5.5437    2.8864   -1.4438 H   0  0
    6.7986    2.0690    1.3189 H   0  0
    8.9475    1.6994    0.1361 H   0  0
    8.4850    3.3998   -0.0013 H   0  0
    8.2373    2.3151   -1.3911 H   0  0
    7.4923   -0.0389    0.1694 H   0  0
    6.6934    0.5082   -1.3398 H   0  0
    5.7168    0.1138    0.1084 H   0  0
    4.6784    4.9932   -0.2950 H   0  0
    5.5594    4.5659    1.1915 H   0  0
    6.5719    6.4465   -0.0574 H   0  0
    6.7571    5.4111   -1.5099 H   0  0
    7.6903    5.0741   -0.0271 H   0  0
   -4.2337   -1.4326    2.3990 H   0  0
   -3.0757   -2.7923    2.4388 H   0  0
   -4.8170   -3.1068    2.2789 H   0  0
   -7.2322   -5.2718    0.4852 H   0  0
   -0.3841    1.4439    2.6479 H   0  0
    0.5323   -0.0743    2.7847 H   0  0
   -1.2301   -0.1254    2.7177 H   0  0
  1  2  1  0
  2  3  1  0
  3  4  1  0
  4  5  1  0
  5  6  1  0
  6  1  1  0
  4  7  2  0
  7  8  1  0
  8  9  1  0
  9 10  1  0
 10  5  1  0
  9 11  1  0
 11 12  1  0
 12 13  1  0
 13 14  1  0
 14 10  1  0
 15 16  1  0
 16 17  1  0
 17 12  1  0
 11 15  1  0
 17 18  1  0
 18 19  1  0
 18 20  1  0
 20 21  1  0
 21 22  1  0
 22 23  1  0
 23 24  1  0
 23 25  1  0
 22 26  1  0
 26 27  1  0
  5 28  1  0
  2 29  1  0
 12 30  1  0
  1 31  1  0
  1 32  1  0
  2 33  1  0
  3 34  1  0
  3 35  1  0
  6 36  1  0
  6 37  1  0
  7 38  1  0
  8 39  1  0
  8 40  1  0
  9 41  1  0
 10 42  1  0
 11 43  1  0
 13 44  1  0
 13 45  1  0
 14 46  1  0
 14 47  1  0
 15 48  1  0
 15 49  1  0
 16 50  1  0
 16 51  1  0
 17 52  1  0
 18 53  1  0
 19 54  1  0
 19 55  1  0
 19 56  1  0
 20 57  1  0
 20 58  1  0
 21 59  1  0
 21 60  1  0
 22 61  1  0
 23 62  1  0
 24 63  1  0
 24 64  1  0
 24 65  1  0
 25 66  1  0
 25 67  1  0
 25 68  1  0
 26 69  1  0
 26 70  1  0
 27 71  1  0
 27 72  1  0
 27 73  1  0
 28 74  1  0
 28 75  1  0
 28 76  1  0
 29 77  1  0
 30 78  1  0
 30 79  1  0
 30 80  1  0
M  END
> <Name>
FLF2014_MD09

> <Clean Energy>
121.758

$$$$
FLF2014_MD10
  SciTegic12132405553D

 82 86  0  0  0  0            999 V2000
   -4.8785   -2.0318   -0.8901 C   0  0
   -4.6898   -3.4261   -0.4275 C   0  0
   -3.3532   -4.0290   -0.6508 C   0  0  1  0  0  0
   -2.3216   -3.2038    0.2221 C   0  0  2  0  0  0
   -2.4160   -1.6617   -0.3038 C   0  0  1  0  0  0
   -3.8955   -1.1304   -0.1171 C   0  0
   -0.8799   -3.6801   -0.0650 C   0  0
    0.2426   -2.7990    0.6013 C   0  0
    0.1560   -1.3431   -0.0099 C   0  0  1  0  0  0
   -1.3162   -0.6513    0.3509 C   0  0  1  0  0  0
    1.4753   -0.3993    0.3941 C   0  0  2  0  0  0
    1.2908    1.0109   -0.3908 C   0  0  1  0  0  0
   -0.1267    1.6881    0.0301 C   0  0
   -1.3706    0.7300   -0.3719 C   0  0
    2.8730   -1.0694   -0.1141 C   0  0
    4.1310   -0.1849    0.3062 C   0  0
    4.1900    1.2849   -0.2374 C   0  0  2  0  0  0
    2.6149    2.0048    0.0186 C   0  0  1  0  0  0
    4.4399    1.5850   -1.6338 C   0  0
    4.5565    3.2593   -1.8012 C   0  0
    3.4969    4.2272   -0.9310 C   0  0  2  0  0  0
    2.3317    3.4139   -0.9074 C   0  0
    5.4956    1.7981    0.5380 C   0  0
    1.1837    0.7473   -2.0129 C   0  0
    1.6278   -0.2407    1.9980 C   0  0
   -1.6517   -0.3153    1.8900 C   0  0
   -2.6552   -3.4684    1.7598 C   0  0
   -3.3993   -5.5616   -0.3852 C   0  0
   -5.6217   -4.0795    0.0532 O   0  0
    3.3815    5.5451   -1.6981 C   0  0
    3.8270    4.6831    0.5551 C   0  0
    2.7480    5.4830    1.0382 O   0  0
   -4.5806   -1.9701   -1.9459 H   0  0
   -5.9147   -1.6954   -0.7497 H   0  0
   -3.0594   -3.8398   -1.6927 H   0  0
   -2.1808   -1.6955   -1.3758 H   0  0
   -4.1531   -1.1364    0.9487 H   0  0
   -3.9913   -0.1110   -0.5070 H   0  0
   -0.7810   -4.7235    0.2580 H   0  0
   -0.7087   -3.6167   -1.1482 H   0  0
    0.1571   -2.7766    1.6951 H   0  0
    1.2027   -3.2446    0.3217 H   0  0
    0.1878   -1.4684   -1.0883 H   0  0
   -0.1349    1.8856    1.1073 H   0  0
   -0.2471    2.6339   -0.5062 H   0  0
   -2.3276    1.2165   -0.1486 H   0  0
   -1.3192    0.5548   -1.4402 H   0  0
    2.9871   -2.0481    0.3670 H   0  0
    2.8587   -1.2077   -1.1980 H   0  0
    5.0646   -0.6894    0.0255 H   0  0
    4.1045   -0.1148    1.3859 H   0  0
    2.5672    2.1569    1.1015 H   0  0
    5.3562    1.1222   -2.0219 H   0  0
    3.6369    1.2284   -2.1856 H   0  0
    5.5656    3.6709   -1.6588 H   0  0
    4.2969    3.3388   -2.8650 H   0  0
    1.4434    3.9281   -0.5239 H   0  0
    2.1847    3.1787   -1.9607 H   0  0
    5.7339    2.8358    0.3811 H   0  0
    5.3380    1.6453    1.6142 H   0  0
    6.3524    1.1945    0.2109 H   0  0
    1.0427    1.6938   -2.5372 H   0  0
    0.3524    0.1005   -2.2688 H   0  0
    2.0829    0.2719   -2.3822 H   0  0
    0.7921    0.2225    2.4261 H   0  0
    1.7596   -1.2325    2.4477 H   0  0
    2.4837    0.3741    2.2590 H   0  0
   -2.6519    0.1242    1.9555 H   0  0
   -0.9673    0.3981    2.2892 H   0  0
   -1.6112   -1.1855    2.5002 H   0  0
   -3.6739   -3.1373    1.9933 H   0  0
   -1.9625   -2.9523    2.3972 H   0  0
   -2.5678   -4.5379    1.9758 H   0  0
   -2.4119   -6.0038   -0.5717 H   0  0
   -4.1335   -6.0178   -1.0636 H   0  0
   -3.6988   -5.7598    0.6507 H   0  0
    2.6175    6.1789   -1.2290 H   0  0
    3.0947    5.3336   -2.7380 H   0  0
    4.3505    6.0620   -1.6814 H   0  0
    3.9658    3.8544    1.2324 H   0  0
    4.7462    5.2836    0.5425 H   0  0
    2.9512    5.7899    1.9545 H   0  0
  1  2  1  0
  2  3  1  0
  3  4  1  0
  4  5  1  0
  5  6  1  0
  6  1  1  0
  4  7  1  0
  7  8  1  0
  8  9  1  0
  9 10  1  0
 10  5  1  0
  9 11  1  0
 11 12  1  0
 12 13  1  0
 13 14  1  0
 14 10  1  0
 11 15  1  0
 15 16  1  0
 16 17  1  0
 17 18  1  0
 18 12  1  0
 17 19  1  0
 19 20  1  0
 20 21  1  0
 21 22  1  0
 22 18  1  0
 17 23  1  0
 12 24  1  0
 11 25  1  0
 10 26  1  0
  4 27  1  0
  3 28  1  0
 21 30  1  0
 21 31  1  0
  2 29  2  0
 31 32  1  0
  1 33  1  0
  1 34  1  0
  3 35  1  0
  5 36  1  0
  6 37  1  0
  6 38  1  0
  7 39  1  0
  7 40  1  0
  8 41  1  0
  8 42  1  0
  9 43  1  0
 13 44  1  0
 13 45  1  0
 14 46  1  0
 14 47  1  0
 15 48  1  0
 15 49  1  0
 16 50  1  0
 16 51  1  0
 18 52  1  0
 19 53  1  0
 19 54  1  0
 20 55  1  0
 20 56  1  0
 22 57  1  0
 22 58  1  0
 23 59  1  0
 23 60  1  0
 23 61  1  0
 24 62  1  0
 24 63  1  0
 24 64  1  0
 25 65  1  0
 25 66  1  0
 25 67  1  0
 26 68  1  0
 26 69  1  0
 26 70  1  0
 27 71  1  0
 27 72  1  0
 27 73  1  0
 28 74  1  0
 28 75  1  0
 28 76  1  0
 30 77  1  0
 30 78  1  0
 30 79  1  0
 31 80  1  0
 31 81  1  0
 32 82  1  0
M  END
> <Name>
FLF2014_MD10

> <Clean Energy>
146.279

$$$$
FLF2014_MD11
  SciTegic12132405553D

 84 88  0  0  0  0            999 V2000
   -5.0122   -2.0080    0.3908 C   0  0
   -4.6687   -2.3562   -0.9135 C   0  0  1  0  0  0
   -3.3416   -3.3749   -0.7819 C   0  0  1  0  0  0
   -2.2059   -2.9283    0.4140 C   0  0  2  0  0  0
   -2.2484   -1.4692    0.2348 C   0  0  1  0  0  0
   -3.7513   -1.0067    0.7738 C   0  0
   -0.8482   -3.4778   -0.0591 C   0  0
    0.3966   -2.7922    0.6259 C   0  0
    0.3319   -1.2418    0.2280 C   0  0  1  0  0  0
   -1.0501   -0.5645    0.8641 C   0  0  1  0  0  0
    1.7280   -0.4146    0.5873 C   0  0  2  0  0  0
    1.5179    1.1066    0.0487 C   0  0  1  0  0  0
    0.1910    1.7574    0.7396 C   0  0
   -1.1459    0.9023    0.3619 C   0  0
    3.0088   -1.0474   -0.1946 C   0  0
    4.3542   -0.2844    0.1792 C   0  0
    4.4268    1.2504   -0.1359 C   0  0  2  0  0  0
    2.9347    1.9768    0.4323 C   0  0  1  0  0  0
    4.5164    1.7685   -1.4875 C   0  0
    4.7077    3.4430   -1.3927 C   0  0
    3.8212    4.2869   -0.2431 C   0  0
    2.6201    3.5267   -0.2073 C   0  0
    5.8484    1.5796    0.5295 C   0  0
    1.1995    1.1041   -1.5640 C   0  0
    2.0894   -0.5067    2.1646 C   0  0
   -1.1647   -0.4390    2.4695 C   0  0
   -2.4337   -3.4390    1.9928 C   0  0
   -3.7063   -4.8612   -0.5866 C   0  0
   -5.6861   -2.9837   -1.7189 O   0  0
    3.6969    5.7216   -0.7488 C   0  0
    4.3538    4.4672    1.2444 C   0  0
   -2.3594   -4.8679    2.2017 O   0  0
   -5.9346   -1.4196    0.4827 H   0  0
   -5.0914   -2.9312    0.9779 H   0  0
   -4.4040   -1.3864   -1.3638 H   0  0
   -2.9132   -3.2724   -1.7876 H   0  0
   -2.1484   -1.3642   -0.8565 H   0  0
   -3.7922   -0.9550    1.8668 H   0  0
   -3.9079   -0.0002    0.3663 H   0  0
   -0.8346   -4.5690    0.0600 H   0  0
   -0.7437   -3.2282   -1.1239 H   0  0
    0.4157   -2.9269    1.7152 H   0  0
    1.2929   -3.2428    0.1863 H   0  0
    0.2305   -1.2111   -0.8547 H   0  0
    0.3235    1.7904    1.8254 H   0  0
    0.0544    2.7775    0.3672 H   0  0
   -2.0493    1.3679    0.7756 H   0  0
   -1.2344    0.8867   -0.7194 H   0  0
    3.1287   -2.0918    0.1167 H   0  0
    2.8484   -1.0166   -1.2756 H   0  0
    4.4686   -0.3842    1.2505 H   0  0
    5.2151   -0.7714   -0.2967 H   0  0
    3.0272    1.9534    1.5220 H   0  0
    5.3491    1.3452   -2.0633 H   0  0
    3.6314    1.5389   -1.9784 H   0  0
    5.7491    3.7862   -1.3158 H   0  0
    4.3261    3.7136   -2.3859 H   0  0
    1.8165    3.9996    0.3683 H   0  0
    2.3312    3.4780   -1.2579 H   0  0
    6.1276    2.6188    0.5082 H   0  0
    6.6196    1.0047   -0.0003 H   0  0
    5.8183    1.2584    1.5793 H   0  0
    1.0459    2.1269   -1.9149 H   0  0
    0.3103    0.5323   -1.8047 H   0  0
    2.0211    0.6636   -2.1141 H   0  0
    3.0027    0.0323    2.3971 H   0  0
    2.2249   -1.5591    2.4420 H   0  0
    1.3413   -0.0873    2.7637 H   0  0
   -2.1304    0.0051    2.7292 H   0  0
   -0.4084    0.1998    2.8657 H   0  0
   -1.0734   -1.3874    2.9457 H   0  0
   -1.6455   -3.0453    2.5931 H   0  0
   -3.3865   -3.0896    2.3934 H   0  0
   -2.7983   -5.4778   -0.5976 H   0  0
   -4.3695   -5.1770   -1.4028 H   0  0
   -4.2294   -4.9901    0.3641 H   0  0
   -6.0147   -3.8091   -1.2940 H   0  0
    3.0366    6.2881   -0.0777 H   0  0
    3.2738    5.7138   -1.7628 H   0  0
    4.6915    6.1882   -0.7677 H   0  0
    3.6123    5.0438    1.8136 H   0  0
    5.2993    5.0251    1.2128 H   0  0
    4.5245    3.5309    1.7550 H   0  0
   -3.1225   -5.3285    1.8455 H   0  0
  1  2  1  0
  2  3  1  0
  3  4  1  0
  4  5  1  0
  5  6  1  0
  6  1  1  0
  4  7  1  0
  7  8  1  0
  8  9  1  0
  9 10  1  0
 10  5  1  0
  9 11  1  0
 11 12  1  0
 12 13  1  0
 13 14  1  0
 14 10  1  0
 11 15  1  0
 15 16  1  0
 16 17  1  0
 17 18  1  0
 18 12  1  0
 17 19  1  0
 19 20  1  0
 20 21  1  0
 21 22  1  0
 22 18  1  0
 17 23  1  0
 12 24  1  0
 11 25  1  0
 10 26  1  0
  4 27  1  0
  3 28  1  0
 21 30  1  0
 21 31  1  0
  2 29  1  0
 27 32  1  0
  1 33  1  0
  1 34  1  0
  2 35  1  0
  3 36  1  0
  5 37  1  0
  6 38  1  0
  6 39  1  0
  7 40  1  0
  7 41  1  0
  8 42  1  0
  8 43  1  0
  9 44  1  0
 13 45  1  0
 13 46  1  0
 14 47  1  0
 14 48  1  0
 15 49  1  0
 15 50  1  0
 16 51  1  0
 16 52  1  0
 18 53  1  0
 19 54  1  0
 19 55  1  0
 20 56  1  0
 20 57  1  0
 22 58  1  0
 22 59  1  0
 23 60  1  0
 23 61  1  0
 23 62  1  0
 24 63  1  0
 24 64  1  0
 24 65  1  0
 25 66  1  0
 25 67  1  0
 25 68  1  0
 26 69  1  0
 26 70  1  0
 26 71  1  0
 27 72  1  0
 27 73  1  0
 28 74  1  0
 28 75  1  0
 28 76  1  0
 29 77  1  0
 30 78  1  0
 30 79  1  0
 30 80  1  0
 31 81  1  0
 31 82  1  0
 31 83  1  0
 32 84  1  0
M  END
> <Name>
FLF2014_MD11

> <Clean Energy>
203.327

$$$$
FLF2014_MD12
  SciTegic12132405553D

  7  6  0  0  0  0            999 V2000
   -1.2662   -0.9190   -0.0004 C   0  0
    0.0266   -0.1573   -0.0006 C   0  0
    0.0154    1.0787   -0.0005 O   0  0
    1.2373   -0.8426   -0.0009 O   0  5
   -1.0829   -2.0035   -0.0004 H   0  0
   -1.8538   -0.6204   -0.8809 H   0  0
   -1.8535   -0.6203    0.8802 H   0  0
  1  2  1  0
  2  3  2  0
  2  4  1  0
  1  5  1  0
  1  6  1  0
  1  7  1  0
M  CHG  1   4  -1
M  END
> <Name>
FLF2014_MD12

> <Clean Energy>
12.644

$$$$
FLF2014_MD02
  SciTegic12132405553D

 53 57  0  0  0  0            999 V2000
   -7.8839   -1.3596    4.9390 C   0  0  1  0  0  0
   -6.4528   -1.5849    5.5536 C   0  0  1  0  0  0
   -5.4264   -0.3564    5.4369 C   0  0  2  0  0  0
   -6.1061    1.0478    5.7426 C   0  0  2  0  0  0
   -7.4783    1.1798    4.9912 C   0  0
   -8.4707    0.0342    5.2895 C   0  0
   -4.4572   -0.4287    4.2781 C   0  0
   -4.0815    0.7213    3.3672 C   0  0  1  0  0  0
   -4.6901    2.1157    3.8436 C   0  0
   -5.1437    2.2004    5.3137 C   0  0
   -3.7452   -1.5829    4.1553 C   0  0
   -2.6783   -1.8493    3.2052 C   0  0
   -1.9437   -0.5899    2.6115 C   0  0  1  0  0  0
   -2.4477    0.7699    3.2778 C   0  0  1  0  0  0
   -0.3686   -0.7647    2.3478 C   0  0  2  0  0  0
    0.1554    0.4877    1.5040 C   0  0  1  0  0  0
   -0.3079    1.8448    2.1208 C   0  0
   -1.8433    1.9229    2.3786 C   0  0
   -0.1381   -2.0162    1.4097 C   0  0
    1.3127   -2.1769    0.8751 C   0  0
    1.8571   -0.8937    0.1772 C   0  0  1  0  0  0
    1.6790    0.4313    1.0145 C   0  0
   -7.9408   -1.6580    3.4138 C   0  0
   -6.5432   -2.2000    6.9910 C   0  0
   -6.3363    1.3079    7.2821 C   0  0
   -1.8783    1.0099    4.7326 C   0  0
    0.3971   -1.0024    3.7115 C   0  0
   -4.7668    0.4416    1.9626 C   0  0
    2.7506    0.4911    2.1644 C   0  0
    2.0156    1.6471    0.0666 C   0  0
    3.2290   -1.0338   -0.2528 O   0  0
    3.8608   -2.1568   -0.6972 C   0  0
    4.3491   -2.9535    0.1389 O   0  0
    4.0164   -2.3846   -2.1450 C   0  0
    2.6789   -2.8720   -2.7639 C   0  0
    2.6988   -2.9431   -4.3115 C   0  0
    1.2876   -3.2308   -4.8979 C   0  0
    1.2647   -3.1874   -6.4478 C   0  0
   -0.1651   -3.3592   -7.0288 C   0  0
   -0.1846   -3.3049   -8.5790 C   0  0
   -1.6028   -3.5239   -9.1745 C   0  0
   -1.5893   -3.5262  -10.7272 C   0  0
   -2.9822   -3.7899  -11.3613 C   0  0
   -2.9153   -3.8160  -12.9133 C   0  0
   -4.2888   -4.0849  -13.5844 C   0  0
   -4.1901   -4.1042  -15.1344 C   0  0
   -5.5547   -4.3668  -15.8253 C   0  0
   -5.4441   -4.3791  -17.3742 C   0  0
   -6.8094   -4.6391  -18.0649 C   0  0
   -6.7116   -4.6524  -19.6070 C   0  0
   -4.7294   -0.4759    6.2736 H   0  0
   -2.3380   -0.5384    1.5903 H   0  0
   -0.4216    0.4614    0.5683 H   0  0
  1  2  1  0
  2  3  1  0
  3  4  1  0
  4  5  1  0
  5  6  1  0
  1  6  1  0
  7  8  1  0
  8  9  1  0
  9 10  1  0
  3  7  1  0
 10  4  1  0
 11 12  1  0
 12 13  1  0
 13 14  1  0
 11  7  2  0
 14  8  1  0
 15 16  1  0
 16 17  1  0
 17 18  1  0
 13 15  1  0
 18 14  1  0
 19 20  1  0
 20 21  1  0
 21 22  1  0
 19 15  1  0
 22 16  1  0
  1 23  1  0
  2 24  1  0
  4 25  1  0
  8 28  1  0
 14 26  1  0
 15 27  1  0
 22 29  1  0
 22 30  1  0
 21 31  1  0
 31 32  1  0
 32 33  2  0
 34 35  1  0
 35 36  1  0
 36 37  1  0
 37 38  1  0
 38 39  1  0
 39 40  1  0
 40 41  1  0
 41 42  1  0
 42 43  1  0
 43 44  1  0
 44 45  1  0
 45 46  1  0
 46 47  1  0
 47 48  1  0
 48 49  1  0
 49 50  1  0
 32 34  1  0
  3 51  1  0
 13 52  1  0
 16 53  1  0
M  END
> <Name>
FLF2014_MD02

$$$$
FLF2014_MD03
  SciTegic12132405553D

 53 57  0  0  0  0            999 V2000
   -7.7527   -1.5547    4.9008 C   0  0
   -6.3277   -1.6253    5.5443 C   0  0
   -5.3442   -0.4077    5.2929 C   0  0  2  0  0  0
   -6.0624    0.9447    5.6917 C   0  0  2  0  0  0
   -7.4737    1.0424    4.9999 C   0  0
   -8.4072   -0.1753    5.2446 C   0  0
   -4.4950   -0.4240    4.0533 C   0  0
   -4.1249    0.7884    3.2280 C   0  0  1  0  0  0
   -4.7413    2.1506    3.7961 C   0  0
   -5.1742    2.1651    5.2819 C   0  0
   -3.8426   -1.5886    3.7948 C   0  0
   -2.7969   -1.7950    2.8202 C   0  0
   -1.9859   -0.5161    2.4068 C   0  0  1  0  0  0
   -2.4925    0.8185    3.1336 C   0  0  1  0  0  0
   -0.4049   -0.7327    2.2433 C   0  0  2  0  0  0
    0.1856    0.5307    1.4606 C   0  0  1  0  0  0
   -0.3009    1.8895    2.0763 C   0  0
   -1.8524    1.9823    2.2736 C   0  0
   -0.1426   -1.9727    1.2938 C   0  0
    1.3337   -2.1653    0.8636 C   0  0
    1.9403   -0.8978    0.1995 C   0  0  1  0  0  0
    1.7244    0.4386    1.0236 C   0  0
   -7.6838   -1.7891    3.3565 C   0  0
   -6.2215    1.0704    7.2576 C   0  0
   -1.9371    1.0053    4.6029 C   0  0
    0.2577   -1.0478    3.6466 C   0  0
   -4.8076    0.6274    1.8077 C   0  0
    2.7347    0.5237    2.2212 C   0  0
    2.0974    1.6266    0.0590 C   0  0
    3.3355   -1.0990   -0.1278 O   0  0
    3.9412   -2.2247   -0.6198 C   0  0
    4.5111   -2.9860    0.1956 O   0  0
    4.0460   -2.4800   -2.0742 C   0  0
    2.7098   -2.9993   -2.6764 C   0  0
    2.6919   -3.0347   -4.2306 C   0  0
    1.2585   -3.2404   -4.7975 C   0  0
    1.2121   -3.1957   -6.3476 C   0  0
   -0.2205   -3.3934   -6.9134 C   0  0
   -0.2366   -3.3888   -8.4651 C   0  0
   -1.6430   -3.6533   -9.0678 C   0  0
   -1.6042   -3.6947  -10.6193 C   0  0
   -2.9827   -3.9789  -11.2736 C   0  0
   -2.8952   -4.0186  -12.8253 C   0  0
   -4.2594   -4.2991  -13.5126 C   0  0
   -4.1622   -4.3331  -15.0643 C   0  0
   -5.5303   -4.6112  -15.7468 C   0  0
   -5.4430   -4.6455  -17.2980 C   0  0
   -6.8148   -4.9235  -17.9717 C   0  0
   -6.7322   -4.9584  -19.5154 C   0  0
   -4.5731   -0.5430    6.0615 H   0  0
   -2.3054   -0.3806    1.3692 H   0  0
   -0.3367    0.5326    0.4952 H   0  0
   -8.6334   -2.7084    5.4925 C   0  0
  1  2  1  0
  2  3  1  0
  3  4  1  0
  4  5  1  0
  5  6  1  0
  1  6  1  0
  7  8  1  0
  8  9  1  0
  9 10  1  0
  3  7  1  0
 10  4  1  0
 11 12  1  0
 12 13  1  0
 13 14  1  0
 11  7  2  0
 14  8  1  0
 15 16  1  0
 16 17  1  0
 17 18  1  0
 13 15  1  0
 18 14  1  0
 19 20  1  0
 20 21  1  0
 21 22  1  0
 19 15  1  0
 22 16  1  0
  1 23  1  0
  4 24  1  0
  8 27  1  0
 14 25  1  0
 15 26  1  0
 22 28  1  0
 22 29  1  0
 21 30  1  0
 30 31  1  0
 31 32  2  0
 33 34  1  0
 34 35  1  0
 35 36  1  0
 36 37  1  0
 37 38  1  0
 38 39  1  0
 39 40  1  0
 40 41  1  0
 41 42  1  0
 42 43  1  0
 43 44  1  0
 44 45  1  0
 45 46  1  0
 46 47  1  0
 47 48  1  0
 48 49  1  0
 31 33  1  0
  3 50  1  0
 13 51  1  0
 16 52  1  0
  1 53  1  0
M  END
> <Name>
FLF2014_MD03

$$$$
FLF2014_MD15
  SciTegic12132405553D

101105  0  0  0  0            999 V2000
   -2.2254   -8.1645    6.9860 C   0  0
   -3.4485   -8.5431    6.1097 C   0  0  1  0  0  0
   -3.0006   -9.5588    5.0192 C   0  0
   -1.9055   -9.0038    4.1963 C   0  0
   -0.6529   -8.5265    4.8727 C   0  0  2  0  0  0
   -1.0685   -7.6184    6.1024 C   0  0
   -2.0983   -8.9274    2.8600 C   0  0
   -1.1698   -8.3499    1.9183 C   0  0
    0.2929   -8.2476    2.4341 C   0  0  2  0  0  0
    0.2913   -7.6745    3.8945 C   0  0  2  0  0  0
    1.1302   -7.3113    1.5052 C   0  0  1  0  0  0
    2.6773   -7.0607    1.8815 C   0  0  2  0  0  0
    2.6181   -6.5209    3.3843 C   0  0
    1.7659   -7.3898    4.3703 C   0  0
    1.1794   -7.5839   -0.0172 C   0  0
    2.3572   -6.6399   -0.5145 C   0  0
    3.2467   -6.0065    0.7285 C   0  0  2  0  0  0
    4.7713   -5.8371    0.3955 C   0  0  2  0  0  0
    5.6228   -5.5417    1.6667 C   0  0
    4.9295   -4.6979   -0.6786 C   0  0
    6.2668   -4.6387   -1.4767 C   0  0
    6.5539   -3.2854   -2.2403 C   0  0  2  0  0  0
    5.6888   -2.9999   -3.5358 C   0  0
    5.7439   -4.1248   -4.6067 C   0  0
    4.2187   -2.5667   -3.2630 C   0  0
    8.0987   -3.1499   -2.4999 C   0  0
    8.5874   -1.7915   -3.0662 C   0  0
    0.1204   -9.7854    5.4033 C   0  0
   -4.5073   -9.0021    6.9834 O   0  0
    3.4738   -8.4527    1.9135 C   0  0
   -2.5187   -7.3978    7.7098 H   0  0
   -1.8843   -9.0338    7.5524 H   0  0
   -3.8031   -7.6282    5.6213 H   0  0
   -2.6874  -10.4900    5.4906 H   0  0
   -3.8735   -9.8157    4.4169 H   0  0
   -1.4007   -6.6415    5.7395 H   0  0
   -0.2062   -7.4365    6.7485 H   0  0
   -2.9490   -9.2585    2.4613 H   0  0
   -1.1787   -8.9437    0.9986 H   0  0
   -1.5565   -7.3554    1.6761 H   0  0
    0.7188   -9.2537    2.4227 H   0  0
   -0.1740   -6.6835    3.8118 H   0  0
    0.6473   -6.3277    1.5784 H   0  0
    3.6332   -6.4403    3.7830 H   0  0
    2.2108   -5.5041    3.3809 H   0  0
    2.2988   -8.3268    4.5242 H   0  0
    1.7400   -6.8753    5.3320 H   0  0
    1.4032   -8.6379   -0.2114 H   0  0
    0.2287   -7.3285   -0.4950 H   0  0
    2.9413   -7.2684   -1.2352 H   0  0
    1.8686   -5.8702   -1.1660 H   0  0
    2.8276   -5.0243    0.9629 H   0  0
    5.1313   -6.7750   -0.0367 H   0  0
    5.5885   -6.3715    2.3661 H   0  0
    5.2655   -4.6489    2.1807 H   0  0
    6.6734   -5.3974    1.4159 H   0  0
    4.1458   -4.8237   -1.4194 H   0  0
    4.7599   -3.7345   -0.1907 H   0  0
    6.3073   -5.4821   -2.1707 H   0  0
    7.0695   -4.8046   -0.7582 H   0  0
    6.3279   -2.4849   -1.5306 H   0  0
    6.1105   -2.1160   -4.0174 H   0  0
    6.7748   -4.4067   -4.8238 H   0  0
    5.2898   -3.7831   -5.5400 H   0  0
    5.2032   -5.0091   -4.2669 H   0  0
    4.1713   -1.8536   -2.4377 H   0  0
    3.7983   -2.0811   -4.1477 H   0  0
    3.5815   -3.4163   -3.0317 H   0  0
    8.6197   -3.2786   -1.5472 H   0  0
    8.4416   -3.9492   -3.1608 H   0  0
    9.6689   -1.7051   -2.9434 H   0  0
    8.3688   -1.7098   -4.1323 H   0  0
    8.1141   -0.9602   -2.5395 H   0  0
    0.4765  -10.3997    4.5751 H   0  0
   -0.4947  -10.4169    6.0417 H   0  0
    0.9768   -9.4933    6.0104 H   0  0
    2.9768   -9.2252    2.4930 H   0  0
    3.6114   -8.8363    0.9032 H   0  0
    4.4658   -8.3263    2.3437 H   0  0
   -6.4871   -8.2081    2.4954 O   0  0
   -7.6116   -8.2307    3.3704 C   0  0
   -7.3404   -9.1650    4.5768 C   0  0  1  0  0  0
   -6.1684   -8.6754    5.2701 O   0  0
   -5.7276   -9.4955    6.3812 C   0  0  2  0  0  0
   -6.8424   -9.5340    7.4594 C   0  0  2  0  0  0
   -6.4602  -10.3742    8.5489 O   0  0
   -8.1816  -10.0248    6.8426 C   0  0  1  0  0  0
   -9.2216   -9.8927    7.8104 O   0  0
   -8.5493   -9.2285    5.5585 C   0  0  2  0  0  0
   -9.6861   -9.8199    4.9273 O   0  0
   -5.6451   -7.8577    3.0158 H   0  0
   -7.8034   -7.2213    3.7343 H   0  0
   -8.4833   -8.5926    2.8251 H   0  0
   -7.1357  -10.1691    4.2053 H   0  0
   -5.5546  -10.5095    6.0206 H   0  0
   -6.9887   -8.5229    7.8394 H   0  0
   -6.2937  -11.3496    8.1976 H   0  0
   -8.0798  -11.0783    6.5821 H   0  0
   -8.9902  -10.4722    8.6549 H   0  0
   -8.8092   -8.2105    5.8489 H   0  0
   -9.4653  -10.8129    4.6669 H   0  0
  2  1  1  0
  2  3  1  0
  3  4  1  0
  5  4  1  0
  5  6  1  0
  6  1  1  0
  4  7  2  0
  7  8  1  0
  9  8  1  0
  9 10  1  0
 10  5  1  0
  9 11  1  0
 11 12  1  0
 12 13  1  0
 13 14  1  0
 10 14  1  0
 15 16  1  0
 17 16  1  0
 12 17  1  0
 11 15  1  0
 17 18  1  0
 18 19  1  0
 18 20  1  0
 20 21  1  0
 22 21  1  0
 22 23  1  0
 23 24  1  0
 23 25  1  0
 22 26  1  0
 26 27  1  0
  5 28  1  0
  2 29  1  0
 12 30  1  0
  1 31  1  0
  1 32  1  0
  2 33  1  0
  3 34  1  0
  3 35  1  0
  6 36  1  0
  6 37  1  0
  7 38  1  0
  8 39  1  0
  8 40  1  0
  9 41  1  0
 10 42  1  0
 11 43  1  0
 13 44  1  0
 13 45  1  0
 14 46  1  0
 14 47  1  0
 15 48  1  0
 15 49  1  0
 16 50  1  0
 16 51  1  0
 17 52  1  0
 18 53  1  0
 19 54  1  0
 19 55  1  0
 19 56  1  0
 20 57  1  0
 20 58  1  0
 21 59  1  0
 21 60  1  0
 22 61  1  0
 23 62  1  0
 24 63  1  0
 24 64  1  0
 24 65  1  0
 25 66  1  0
 25 67  1  0
 25 68  1  0
 26 69  1  0
 26 70  1  0
 27 71  1  0
 27 72  1  0
 27 73  1  0
 28 74  1  0
 28 75  1  0
 28 76  1  0
 30 77  1  0
 30 78  1  0
 30 79  1  0
 80 81  1  0
 82 81  1  0
 82 83  1  0
 83 84  1  0
 84 85  1  0
 85 86  1  0
 85 87  1  0
 87 88  1  0
 87 89  1  0
 82 89  1  0
 89 90  1  0
 84 29  1  0
 80 91  1  0
 81 92  1  0
 81 93  1  0
 82 94  1  0
 84 95  1  0
 85 96  1  0
 86 97  1  0
 87 98  1  0
 88 99  1  0
 89100  1  0
 90101  1  0
M  END
> <Name>
FLF2014_MD15

> <Clean Energy>
121.758

$$$$
FLF2014_MD14
  SciTegic12132405553D

101100  0  0  0  0            999 V2000
  -18.8990   -1.1245   -0.0001 C   0  0
  -17.6414   -2.0087   -0.0001 C   0  0
  -16.3920   -1.1156    0.0001 C   0  0
  -15.1363   -2.0010    0.0000 C   0  0
  -13.8809   -1.1120    0.0003 C   0  0
  -12.6228   -2.0016    0.0002 C   0  0
  -11.3599   -1.1154    0.0004 C   0  0
  -10.0991   -2.0085    0.0004 C   0  0
   -8.8300   -1.1242    0.0004 C   0  0
   -7.5662   -2.0194    0.0004 C   0  0
   -6.2926   -1.1358    0.0003 C   0  0
   -5.0259   -2.0319    0.0003 C   0  0
   -3.7494   -1.1481   -0.0002 C   0  0
   -2.4800   -2.0441   -0.0001 C   0  0
   -1.2020   -1.1594   -0.0010 C   0  0
    0.0693   -2.0547   -0.0008 C   0  0
    1.3475   -1.1687   -0.0021 C   0  0
    2.6200   -2.0628   -0.0017 C   0  0
    3.8970   -1.1757   -0.0033 C   0  0
    5.1695   -2.0686   -0.0023 C   0  0
    6.4446   -1.1807   -0.0040 C   0  0
    7.7157   -2.0727   -0.0019 C   0  0
    8.9881   -1.1846   -0.0033 C   0  0
   10.2564   -2.0761    0.0004 C   0  0
   11.5256   -1.1884   -0.0002 C   0  0
   12.7900   -2.0798    0.0056 C   0  0
   14.0552   -1.1928    0.0060 C   0  0
   15.3150   -2.0838    0.0141 C   0  0
   16.5752   -1.1972    0.0156 C   0  0
   17.8304   -2.0871    0.0260 C   0  0
   19.0850   -1.1996    0.0281 C   0  0
   20.3388   -2.0888    0.0397 C   0  0
   21.5823   -1.2501    0.0298 C   0  0
   21.5071   -0.0354   -0.1865 O   0  0
   22.8200   -1.8396    0.2649 O   0  0
  -19.7960   -1.7616   -0.0002 H   0  0
  -18.8996   -0.4898   -0.8977 H   0  0
  -18.8997   -0.4900    0.8977 H   0  0
  -17.6383   -2.6430    0.8975 H   0  0
  -17.6382   -2.6428   -0.8979 H   0  0
  -16.3948   -0.4813   -0.8973 H   0  0
  -16.3949   -0.4815    0.8976 H   0  0
  -15.1368   -2.6354    0.8973 H   0  0
  -15.1367   -2.6353   -0.8972 H   0  0
  -13.8821   -0.4777   -0.8971 H   0  0
  -13.8823   -0.4778    0.8975 H   0  0
  -12.6251   -2.6360    0.8974 H   0  0
  -12.6250   -2.6360   -0.8969 H   0  0
  -11.3594   -0.4811   -0.8969 H   0  0
  -11.3595   -0.4810    0.8975 H   0  0
  -10.1025   -2.6429    0.8976 H   0  0
  -10.1024   -2.6431   -0.8966 H   0  0
   -8.8283   -0.4898   -0.8969 H   0  0
   -8.8284   -0.4895    0.8973 H   0  0
   -7.5701   -2.6538    0.8978 H   0  0
   -7.5701   -2.6543   -0.8963 H   0  0
   -6.2904   -0.5015   -0.8971 H   0  0
   -6.2903   -0.5008    0.8970 H   0  0
   -5.0296   -2.6662    0.8977 H   0  0
   -5.0299   -2.6671   -0.8963 H   0  0
   -3.7471   -0.5139   -0.8976 H   0  0
   -3.7467   -0.5128    0.8963 H   0  0
   -2.4831   -2.6783    0.8975 H   0  0
   -2.4836   -2.6796   -0.8965 H   0  0
   -1.2000   -0.5254   -0.8986 H   0  0
   -1.1994   -0.5238    0.8953 H   0  0
    0.0672   -2.6885    0.8969 H   0  0
    0.0665   -2.6904   -0.8970 H   0  0
    1.3491   -0.5350   -0.8999 H   0  0
    1.3499   -0.5328    0.8939 H   0  0
    2.6187   -2.6963    0.8963 H   0  0
    2.6180   -2.6989   -0.8976 H   0  0
    3.8985   -0.5424   -0.9014 H   0  0
    3.8991   -0.5395    0.8925 H   0  0
    5.1688   -2.7016    0.8960 H   0  0
    5.1685   -2.7051   -0.8980 H   0  0
    6.4463   -0.5478   -0.9024 H   0  0
    6.4461   -0.5441    0.8916 H   0  0
    7.7151   -2.7052    0.8967 H   0  0
    7.7158   -2.7096   -0.8973 H   0  0
    8.9906   -0.5522   -0.9020 H   0  0
    8.9891   -0.5476    0.8920 H   0  0
   10.2553   -2.7080    0.8995 H   0  0
   10.2576   -2.7134   -0.8946 H   0  0
   11.5293   -0.5567   -0.8994 H   0  0
   11.5259   -0.5510    0.8948 H   0  0
   12.7878   -2.7109    0.9051 H   0  0
   12.7924   -2.7176   -0.8891 H   0  0
   14.0604   -0.5618   -0.8937 H   0  0
   14.0545   -0.5549    0.9006 H   0  0
   15.3118   -2.7142    0.9142 H   0  0
   15.3188   -2.7221   -0.8802 H   0  0
   16.5815   -0.5670   -0.8846 H   0  0
   16.5733   -0.5588    0.9098 H   0  0
   17.8265   -2.7167    0.9266 H   0  0
   17.8356   -2.7259   -0.8680 H   0  0
   19.0900   -0.5709   -0.8733 H   0  0
   19.0815   -0.5597    0.9214 H   0  0
   20.3590   -2.7503    0.9173 H   0  0
   20.3486   -2.7362   -0.8485 H   0  0
   22.6989   -2.8099    0.4186 H   0  0
  1  2  1  0
  2  3  1  0
  3  4  1  0
  4  5  1  0
  5  6  1  0
  6  7  1  0
  7  8  1  0
  8  9  1  0
  9 10  1  0
 10 11  1  0
 11 12  1  0
 12 13  1  0
 13 14  1  0
 14 15  1  0
 15 16  1  0
 16 17  1  0
 17 18  1  0
 18 19  1  0
 19 20  1  0
 20 21  1  0
 21 22  1  0
 22 23  1  0
 23 24  1  0
 24 25  1  0
 25 26  1  0
 26 27  1  0
 27 28  1  0
 28 29  1  0
 29 30  1  0
 30 31  1  0
 31 32  1  0
 32 33  1  0
 33 35  1  0
 33 34  2  0
  1 36  1  0
  1 37  1  0
  1 38  1  0
  2 39  1  0
  2 40  1  0
  3 41  1  0
  3 42  1  0
  4 43  1  0
  4 44  1  0
  5 45  1  0
  5 46  1  0
  6 47  1  0
  6 48  1  0
  7 49  1  0
  7 50  1  0
  8 51  1  0
  8 52  1  0
  9 53  1  0
  9 54  1  0
 10 55  1  0
 10 56  1  0
 11 57  1  0
 11 58  1  0
 12 59  1  0
 12 60  1  0
 13 61  1  0
 13 62  1  0
 14 63  1  0
 14 64  1  0
 15 65  1  0
 15 66  1  0
 16 67  1  0
 16 68  1  0
 17 69  1  0
 17 70  1  0
 18 71  1  0
 18 72  1  0
 19 73  1  0
 19 74  1  0
 20 75  1  0
 20 76  1  0
 21 77  1  0
 21 78  1  0
 22 79  1  0
 22 80  1  0
 23 81  1  0
 23 82  1  0
 24 83  1  0
 24 84  1  0
 25 85  1  0
 25 86  1  0
 26 87  1  0
 26 88  1  0
 27 89  1  0
 27 90  1  0
 28 91  1  0
 28 92  1  0
 29 93  1  0
 29 94  1  0
 30 95  1  0
 30 96  1  0
 31 97  1  0
 31 98  1  0
 32 99  1  0
 32100  1  0
 35101  1  0
M  END
> <Name>
FLF2014_MD14

> <Clean Energy>
-15.0138

$$$$
TMMH2018_2
  DSViewer          3D                             0

 26 26  0  0  0  0  0  0  0  0999 V2000
    1.3843   -2.7094   -1.9725 C   0  0
    1.5895   -3.2201   -3.3285 C   0  0
    2.4738   -2.6597   -4.1463 C   0  0
    3.2672   -1.5198   -3.7180 C   0  0
    3.0927   -1.0426   -2.4748 C   0  0
    2.1217   -1.6518   -1.5652 C   0  0
    2.0214   -1.0165   -0.2076 C   0  0
    0.8807   -0.0504   -0.2498 C   0  0
    1.0377    1.1761    0.2390 C   0  0
    4.1952   -0.9775   -4.6757 O   0  0
    4.9753    0.1564   -4.2488 C   0  0
    2.6427   -3.1679   -5.4280 O   0  0
    0.3903   -3.3964   -1.1830 N   0  3
    0.0565   -3.0569    0.0530 O   0  5
   -0.1670   -4.3092   -1.6712 O   0  0
    1.0223   -4.0502   -3.6655 H   0  0
    3.6444   -0.2164   -2.1166 H   0  0
    2.9398   -0.4738    0.0569 H   0  0
    1.7731   -1.7865    0.5274 H   0  0
   -0.0393   -0.3330   -0.6961 H   0  0
    1.9680    1.4616    0.6627 H   0  0
    0.2363    1.8696    0.2009 H   0  0
    5.6379    0.4718   -5.0669 H   0  0
    5.5824   -0.1209   -3.3739 H   0  0
    4.3040    0.9871   -3.9825 H   0  0
    2.0331   -3.9353   -5.5611 H   0  0
  1  2  1  0  0  0
  2  3  2  0  0  0
  3  4  1  0  0  0
  4  5  2  0  0  0
  5  6  1  0  0  0
  1  6  2  0  0  0
  7  8  1  0  0  0
  6  7  1  0  0  0
  8  9  2  0  0  0
  4 10  1  0  0  0
 10 11  1  0  0  0
  3 12  1  0  0  0
  1 13  1  0  0  0
 13 14  1  0  0  0
 13 15  2  0  0  0
  2 16  1  0  0  0
  5 17  1  0  0  0
  7 18  1  0  0  0
  7 19  1  0  0  0
  8 20  1  0  0  0
  9 21  1  0  0  0
  9 22  1  0  0  0
 11 23  1  0  0  0
 11 24  1  0  0  0
 11 25  1  0  0  0
 12 26  1  0  0  0
M  CHG  2  13   1  14  -1
M  END
> <Clean Energy>
13858.1

$$$$
TMMH2018_6
  DSViewer          3D                             0

 67 68  0  0  0  0  0  0  0  0999 V2000
    0.6855    0.0957   -3.7124 C   0  0
   -0.6821    0.3962   -3.2713 C   0  0
   -1.0141    0.3709   -1.9703 C   0  0
   -0.0074    0.0219   -0.9779 C   0  0
    1.2423   -0.2664   -1.3719 C   0  0
    1.6163   -0.2260   -2.7859 C   0  0
    3.0657   -0.5644   -3.0999 C   0  0
    3.9855    0.3570   -2.3506 C   0  0
    5.3018    0.1879   -2.4354 C   0  0
   -0.4486    0.0016    0.3914 O   0  0
    0.5249   -0.3553    1.3890 C   0  0
   -2.3276    0.6647   -1.4529 O   0  0
    0.9175    0.1785   -5.1331 N   0  3
   -0.0946    0.5200   -5.9176 O   0  5
    1.9577   -0.0270   -5.6340 O   0  0
   -4.0055    2.3358   -4.1991 C   0  0  2  0  0  0
   -5.3370    2.7453   -3.5670 C   0  0  2  0  0  0
   -5.8305    1.5286   -2.7044 C   0  0  1  0  0  0
   -4.7326    1.2598   -1.6131 C   0  0  2  0  0  0
   -3.3887    0.9482   -2.3790 C   0  0  1  0  0  0
   -3.0240    2.0646   -3.1948 O   0  0
   -3.4956    3.4772   -5.0749 C   0  0
   -2.2652    3.0763   -5.6743 O   0  0
   -1.7894    4.0872   -6.4970 C   0  0
   -0.5108    3.8900   -7.2511 C   0  0
   -2.4221    5.1427   -6.6181 O   0  0
   -6.2536    3.0546   -4.6734 O   0  0
   -7.1194    1.8543   -2.0988 O   0  0
   -5.1322    0.1334   -0.7791 O   0  0
   -4.5251   -0.0645    0.5191 C   0  0
   -4.8629   -1.0645    1.1612 O   0  0
   -3.6060    0.9395    1.2084 C   0  0
   -7.9809    0.8173   -1.5728 C   0  0
   -9.0329    1.1730   -1.0310 O   0  0
   -7.7496   -0.6808   -1.7433 C   0  0
   -7.4639    3.8103   -4.4353 C   0  0
   -8.2180    3.9962   -5.3965 O   0  0
   -7.8192    4.4958   -3.1198 C   0  0
   -1.3957    0.6427   -4.0071 H   0  0
    1.9907   -0.5284   -0.6752 H   0  0
    3.2987   -0.5400   -4.1597 H   0  0
    3.2927   -1.5703   -2.7214 H   0  0
    3.5888    1.1374   -1.7510 H   0  0
    5.6974   -0.5954   -3.0314 H   0  0
    5.9553    0.8340   -1.9048 H   0  0
    0.0528   -0.3316    2.3815 H   0  0
    1.3595    0.3606    1.3641 H   0  0
    0.9028   -1.3694    1.1892 H   0  0
   -4.1535    1.4433   -4.8228 H   0  0
   -5.1755    3.6390   -2.9509 H   0  0
   -5.9423    0.6635   -3.3692 H   0  0
   -4.6374    2.1603   -0.9950 H   0  0
   -3.5364    0.0666   -3.0184 H   0  0
   -3.3381    4.3738   -4.4601 H   0  0
   -4.2333    3.6938   -5.8601 H   0  0
   -0.4756    4.5528   -8.1282 H   0  0
   -0.3965    2.8306   -7.5254 H   0  0
    0.3220    4.1497   -6.5826 H   0  0
   -3.5258    0.7117    2.2804 H   0  0
   -3.9704    1.9627    1.0386 H   0  0
   -2.6139    0.8749    0.7554 H   0  0
   -7.1138   -1.0246   -0.9169 H   0  0
   -7.2195   -0.8909   -2.6821 H   0  0
   -8.7058   -1.2192   -1.6843 H   0  0
   -8.3288    3.7647   -2.4792 H   0  0
   -8.5098    5.3309   -3.3033 H   0  0
   -6.9127    4.8246   -2.5932 H   0  0
  1  2  1  0  0  0
  2  3  2  0  0  0
  3  4  1  0  0  0
  4  5  2  0  0  0
  5  6  1  0  0  0
  1  6  2  0  0  0
  7  8  1  0  0  0
  6  7  1  0  0  0
  8  9  2  0  0  0
  4 10  1  0  0  0
 10 11  1  0  0  0
  3 12  1  0  0  0
  1 13  1  0  0  0
 13 14  1  0  0  0
 13 15  2  0  0  0
 17 16  1  0  0  0
 18 17  1  0  0  0
 19 18  1  0  0  0
 20 19  1  0  0  0
 20 21  1  0  0  0
 16 21  1  0  0  0
 20 12  1  0  0  0
 22 23  1  0  0  0
 16 22  1  0  0  0
 23 24  1  0  0  0
 24 25  1  0  0  0
 24 26  2  0  0  0
 17 27  1  0  0  0
 18 28  1  0  0  0
 19 29  1  0  0  0
 29 30  1  0  0  0
 30 32  1  0  0  0
 28 33  1  0  0  0
 33 35  1  0  0  0
 27 36  1  0  0  0
 36 37  2  0  0  0
 36 38  1  0  0  0
 33 34  2  0  0  0
 30 31  2  0  0  0
  2 39  1  0  0  0
  5 40  1  0  0  0
  7 41  1  0  0  0
  7 42  1  0  0  0
  8 43  1  0  0  0
  9 44  1  0  0  0
  9 45  1  0  0  0
 11 46  1  0  0  0
 11 47  1  0  0  0
 11 48  1  0  0  0
 16 49  1  0  0  0
 17 50  1  0  0  0
 18 51  1  0  0  0
 19 52  1  0  0  0
 20 53  1  0  0  0
 22 54  1  0  0  0
 22 55  1  0  0  0
 25 56  1  0  0  0
 25 57  1  0  0  0
 25 58  1  0  0  0
 32 59  1  0  0  0
 32 60  1  0  0  0
 32 61  1  0  0  0
 35 62  1  0  0  0
 35 63  1  0  0  0
 35 64  1  0  0  0
 38 65  1  0  0  0
 38 66  1  0  0  0
 38 67  1  0  0  0
M  CHG  2  13   1  14  -1
M  END
> <Clean Energy>
2.20952e+06

$$$$
TMMH2018_7
  DSViewer          3D                             0

 67 68  0  0  0  0  0  0  0  0999 V2000
   -4.5575   -0.8405   -1.2808 C   0  0
   -3.8240   -2.0804   -1.1107 C   0  0
   -4.3491   -3.2536   -1.4986 C   0  0
   -5.7073   -3.2845   -2.0464 C   0  0
   -6.3999   -2.1371   -2.1732 C   0  0
   -5.7973   -0.8635   -1.7884 C   0  0
   -6.6105    0.3978   -2.0024 C   0  0
   -6.9314    1.0691   -0.6807 C   0  0
   -7.3442    0.3670    0.3749 C   0  0
   -6.2250   -4.5863   -2.3806 O   0  0
   -7.5865   -4.6455   -2.8445 C   0  0
   -3.6673   -4.5305   -1.4227 O   0  0
   -3.8923    0.3544   -0.9139 N   0  0
   -0.3791   -3.6699   -0.1059 C   0  0  2  0  0  0
    0.4369   -4.9363   -0.3248 C   0  0  2  0  0  0
   -0.5032   -6.1473    0.0192 C   0  0  1  0  0  0
   -1.7579   -6.0689   -0.9324 C   0  0  2  0  0  0
   -2.4377   -4.6626   -0.6665 C   0  0  1  0  0  0
   -1.5075   -3.6334   -0.9799 O   0  0
    0.4785   -2.4401   -0.3811 C   0  0
   -0.3255   -1.2855   -0.1302 O   0  0
    0.4127   -0.1278   -0.3175 C   0  0
   -0.2310    1.2052   -0.0825 C   0  0
    1.5998   -0.1919   -0.6561 O   0  0
    1.5907   -4.8492    0.5815 O   0  0
    0.2424   -7.3951   -0.1543 O   0  0
   -2.6771   -7.1589   -0.6373 O   0  0
   -3.6680   -7.5451   -1.6260 C   0  0
   -4.4626   -8.4402   -1.3201 O   0  0
   -3.7055   -7.0291   -3.0681 C   0  0
   -0.2227   -8.6470    0.4047 C   0  0
    0.4511   -9.6551    0.1668 O   0  0
   -1.4111   -8.8084    1.3499 C   0  0
    2.7424   -5.7073    0.4259 C   0  0
    3.6442   -5.5977    1.2638 O   0  0
    2.9891   -6.6533   -0.7461 C   0  0
   -2.8590   -2.0228   -0.7120 H   0  0
   -7.3849   -2.1222   -2.5536 H   0  0
   -7.5502    0.1256   -2.5036 H   0  0
   -6.0408    1.1214   -2.6021 H   0  0
   -6.8449    2.1234   -0.6018 H   0  0
   -7.4547   -0.6851    0.3110 H   0  0
   -7.5637    0.8666    1.2845 H   0  0
   -7.8544   -5.6913   -3.0531 H   0  0
   -7.6951   -4.0498   -3.7605 H   0  0
   -8.2565   -4.2484   -2.0642 H   0  0
   -2.9733    0.2978   -0.5485 H   0  0
   -4.3058    1.2419   -1.0420 H   0  0
   -0.7199   -3.6306    0.9381 H   0  0
    0.7744   -4.9664   -1.3692 H   0  0
   -0.8162   -6.0447    1.0659 H   0  0
   -1.4171   -6.1521   -1.9710 H   0  0
   -2.7084   -4.5770    0.3945 H   0  0
    0.8219   -2.4452   -1.4240 H   0  0
    1.3452   -2.4398    0.2944 H   0  0
    0.5235    2.0034   -0.0434 H   0  0
   -0.8308    1.1633    0.8397 H   0  0
   -0.9341    1.3982   -0.9060 H   0  0
   -4.4688   -7.5636   -3.6506 H   0  0
   -2.7090   -7.1529   -3.5195 H   0  0
   -3.9149   -5.9567   -3.0702 H   0  0
   -2.1906   -9.3771    0.8211 H   0  0
   -1.8170   -7.8442    1.6767 H   0  0
   -1.1066   -9.4241    2.2073 H   0  0
    3.1131   -7.6709   -0.3489 H   0  0
    3.9487   -6.3883   -1.2116 H   0  0
    2.1813   -6.6279   -1.4848 H   0  0
  1  2  1  0  0  0
  2  3  2  0  0  0
  3  4  1  0  0  0
  4  5  2  0  0  0
  5  6  1  0  0  0
  1  6  2  0  0  0
  7  8  1  0  0  0
  6  7  1  0  0  0
  8  9  2  0  0  0
  4 10  1  0  0  0
 10 11  1  0  0  0
  3 12  1  0  0  0
  1 13  1  0  0  0
 15 14  1  0  0  0
 15 16  1  0  0  0
 16 17  1  0  0  0
 17 18  1  0  0  0
 18 19  1  0  0  0
 14 19  1  0  0  0
 18 12  1  0  0  0
 20 21  1  0  0  0
 14 20  1  0  0  0
 21 22  1  0  0  0
 22 23  1  0  0  0
 22 24  2  0  0  0
 15 25  1  0  0  0
 16 26  1  0  0  0
 17 27  1  0  0  0
 27 28  1  0  0  0
 28 30  1  0  0  0
 26 31  1  0  0  0
 31 33  1  0  0  0
 25 34  1  0  0  0
 34 35  2  0  0  0
 34 36  1  0  0  0
 31 32  2  0  0  0
 28 29  2  0  0  0
  2 37  1  0  0  0
  5 38  1  0  0  0
  7 39  1  0  0  0
  7 40  1  0  0  0
  8 41  1  0  0  0
  9 42  1  0  0  0
  9 43  1  0  0  0
 11 44  1  0  0  0
 11 45  1  0  0  0
 11 46  1  0  0  0
 13 47  1  0  0  0
 13 48  1  0  0  0
 14 49  1  0  0  0
 15 50  1  0  0  0
 16 51  1  0  0  0
 17 52  1  0  0  0
 18 53  1  0  0  0
 20 54  1  0  0  0
 20 55  1  0  0  0
 23 56  1  0  0  0
 23 57  1  0  0  0
 23 58  1  0  0  0
 30 59  1  0  0  0
 30 60  1  0  0  0
 30 61  1  0  0  0
 33 62  1  0  0  0
 33 63  1  0  0  0
 33 64  1  0  0  0
 36 65  1  0  0  0
 36 66  1  0  0  0
 36 67  1  0  0  0
M  END
> <Clean Energy>
137.985

$$$$
TMMH2018_8
  DSViewer          3D                             0

 72 73  0  0  0  0  0  0  0  0999 V2000
   -6.3646   -2.3338   -1.4525 C   0  0
   -5.5841   -3.5911   -1.5337 C   0  0
   -4.3479   -3.6046   -2.0139 C   0  0
   -3.7365   -2.3662   -2.5403 C   0  0
   -4.4491   -1.2310   -2.4960 C   0  0
   -5.7933   -1.2105   -1.9299 C   0  0
   -6.4852    0.1201   -1.9172 C   0  0
   -7.4403    0.1225   -3.0702 C   0  0
   -7.3458    1.0619   -4.0065 C   0  0
   -2.4161   -2.4637   -3.1196 O   0  0
   -1.8503   -1.2614   -3.6741 C   0  0
   -3.6659   -4.8356   -2.0289 O   0  0
   -7.7100   -2.2982   -0.8505 N   0  0
   -0.7418   -3.7555   -0.1459 C   0  0  2  0  0  0
    0.2007   -4.9499   -0.2608 C   0  0  2  0  0  0
   -0.6750   -6.2418   -0.1057 C   0  0  1  0  0  0
   -1.7428   -6.2286   -1.2632 C   0  0  2  0  0  0
   -2.5738   -4.9036   -1.0832 C   0  0  1  0  0  0
   -1.7179   -3.7756   -1.1824 O   0  0
    0.0658   -2.4663   -0.2693 C   0  0
   -0.8227   -1.3572   -0.1486 O   0  0
   -0.1095   -0.1705   -0.2409 C   0  0
   -0.8295    1.1382   -0.1379 C   0  0
    1.1160   -0.1906   -0.4027 O   0  0
    1.1829   -4.8137    0.8198 O   0  0
    0.1748   -7.4256   -0.1845 O   0  0
   -2.5957   -7.4017   -1.1644 O   0  0
   -3.3970   -7.8199   -2.3009 C   0  0
   -4.1385   -8.7953   -2.1423 O   0  0
   -3.2988   -7.2348   -3.7179 C   0  0
   -0.2820   -8.6994    0.3280 C   0  0
    0.4653   -9.6717    0.1777 O   0  0
   -1.5423   -8.9054    1.1703 C   0  0
    2.4145   -5.5679    0.8088 C   0  0
    3.1651   -5.4363    1.7817 O   0  0
    2.9240   -6.4116   -0.3591 C   0  0
   -8.3062   -3.3448   -0.2501 C   0  0
   -7.7813   -4.4562   -0.1494 O   0  0
   -9.6632   -3.1416    0.3449 C   0  0
   -5.9893   -4.4924   -1.1816 H   0  0
   -4.0651   -0.3219   -2.8709 H   0  0
   -5.7706    0.9485   -2.0241 H   0  0
   -7.0844    0.1836   -0.9998 H   0  0
   -8.1721   -0.6415   -3.1544 H   0  0
   -6.5984    1.8110   -3.9311 H   0  0
   -8.0141    1.0590   -4.8303 H   0  0
   -0.8530   -1.4834   -4.0797 H   0  0
   -1.7631   -0.4973   -2.8881 H   0  0
   -2.4978   -0.8881   -4.4830 H   0  0
   -8.2216   -1.4572   -0.8571 H   0  0
   -1.2439   -3.7743    0.8315 H   0  0
    0.7010   -4.9156   -1.2373 H   0  0
   -1.1645   -6.2000    0.8751 H   0  0
   -1.2233   -6.2427   -2.2294 H   0  0
   -3.0284   -4.8998   -0.0835 H   0  0
    0.5658   -2.4369   -1.2468 H   0  0
    0.8171   -2.4258    0.5313 H   0  0
   -0.1218    1.9793   -0.1739 H   0  0
   -1.4146    1.1511    0.7936 H   0  0
   -1.5553    1.2052   -0.9619 H   0  0
   -4.2686   -7.3273   -4.2267 H   0  0
   -2.5758   -7.8431   -4.2800 H   0  0
   -2.9402   -6.2009   -3.7157 H   0  0
   -1.7859   -9.9753    1.2365 H   0  0
   -2.3800   -8.3278    0.7821 H   0  0
   -1.3370   -8.5241    2.1801 H   0  0
    3.3726   -7.3354    0.0318 H   0  0
    3.7348   -5.8532   -0.8470 H   0  0
    2.1443   -6.6261   -1.0952 H   0  0
   -9.8515   -3.8866    1.1325 H   0  0
  -10.4083   -3.2771   -0.4500 H   0  0
   -9.7579   -2.1109    0.7175 H   0  0
  1  2  1  0  0  0
  2  3  2  0  0  0
  3  4  1  0  0  0
  4  5  2  0  0  0
  5  6  1  0  0  0
  1  6  2  0  0  0
  7  8  1  0  0  0
  6  7  1  0  0  0
  8  9  2  0  0  0
  4 10  1  0  0  0
 10 11  1  0  0  0
  3 12  1  0  0  0
  1 13  1  0  0  0
 15 14  1  0  0  0
 15 16  1  0  0  0
 16 17  1  0  0  0
 17 18  1  0  0  0
 18 19  1  0  0  0
 14 19  1  0  0  0
 18 12  1  0  0  0
 20 21  1  0  0  0
 14 20  1  0  0  0
 21 22  1  0  0  0
 22 23  1  0  0  0
 22 24  2  0  0  0
 15 25  1  0  0  0
 16 26  1  0  0  0
 17 27  1  0  0  0
 27 28  1  0  0  0
 28 30  1  0  0  0
 26 31  1  0  0  0
 31 33  1  0  0  0
 25 34  1  0  0  0
 34 35  2  0  0  0
 34 36  1  0  0  0
 31 32  2  0  0  0
 28 29  2  0  0  0
 13 37  1  0  0  0
 37 39  1  0  0  0
 37 38  2  0  0  0
  2 40  1  0  0  0
  5 41  1  0  0  0
  7 42  1  0  0  0
  7 43  1  0  0  0
  8 44  1  0  0  0
  9 45  1  0  0  0
  9 46  1  0  0  0
 11 47  1  0  0  0
 11 48  1  0  0  0
 11 49  1  0  0  0
 13 50  1  0  0  0
 14 51  1  0  0  0
 15 52  1  0  0  0
 16 53  1  0  0  0
 17 54  1  0  0  0
 18 55  1  0  0  0
 20 56  1  0  0  0
 20 57  1  0  0  0
 23 58  1  0  0  0
 23 59  1  0  0  0
 23 60  1  0  0  0
 30 61  1  0  0  0
 30 62  1  0  0  0
 30 63  1  0  0  0
 33 64  1  0  0  0
 33 65  1  0  0  0
 33 66  1  0  0  0
 36 67  1  0  0  0
 36 68  1  0  0  0
 36 69  1  0  0  0
 39 70  1  0  0  0
 39 71  1  0  0  0
 39 72  1  0  0  0
M  END
> <Clean Energy>
87.5403

$$$$
TMMH2018_8'
  DSViewer          3D                             0

 52 53  0  0  0  0  0  0  0  0999 V2000
    0.6789   -1.6642   -2.3127 C   0  0
    0.6852   -1.6059   -3.7949 C   0  0
    1.8308   -1.4422   -4.4736 C   0  0
    3.0878   -1.2963   -3.7572 C   0  0
    3.0887   -1.3111   -2.4151 C   0  0
    1.8483   -1.4994   -1.6698 C   0  0
    1.9533   -1.5277   -0.1624 C   0  0
    1.4289   -0.2177    0.3814 C   0  0
    1.9721    0.9425    0.0133 C   0  0
    4.2656   -1.1189   -4.5676 O   0  0
    5.5149   -0.9442   -3.8712 C   0  0
    1.9156   -1.3938   -5.9139 O   0  0
   -0.5643   -1.9150   -1.5594 N   0  0
    0.2205   -3.8368   -6.9495 C   0  0  2  0  0  0
    0.6525   -3.7022   -8.4555 C   0  0  2  0  0  0
    1.7206   -2.5570   -8.7239 C   0  0  1  0  0  0
    1.0465   -1.2315   -8.2101 C   0  0  2  0  0  0
    0.6864   -1.3390   -6.6908 C   0  0  1  0  0  0
   -0.2587   -2.5007   -6.5102 O   0  0
    1.3045   -4.4196   -6.0047 C   0  0
    1.6698   -5.7141   -6.4748 O   0  0
   -0.5233   -3.3553   -9.1859 O   0  0
    3.0259   -2.7697   -8.1159 O   0  0
   -0.1651   -1.0122   -8.9280 O   0  0
   -1.7427   -2.2465   -2.1171 C   0  0
   -1.9047   -2.3701   -3.3341 O   0  0
   -2.9060   -2.5071   -1.2135 C   0  0
   -0.2135   -1.7095   -4.3073 H   0  0
    3.9800   -1.1967   -1.8611 H   0  0
    3.0145   -1.6219    0.1070 H   0  0
    1.3350   -2.3354    0.2526 H   0  0
    0.6316   -0.2238    1.0805 H   0  0
    2.7813    0.9599   -0.6722 H   0  0
    1.5946    1.8517    0.4089 H   0  0
    6.3257   -0.8196   -4.6032 H   0  0
    5.7185   -1.8272   -3.2479 H   0  0
    5.4593   -0.0482   -3.2338 H   0  0
   -0.5527   -1.8667   -0.5761 H   0  0
   -0.6076   -4.5571   -6.8974 H   0  0
    1.0170   -4.6711   -8.8220 H   0  0
    1.8982   -2.4854   -9.8055 H   0  0
    1.7134   -0.3756   -8.3841 H   0  0
    0.1702   -0.4165   -6.3924 H   0  0
    0.8840   -4.5039   -4.9918 H   0  0
    2.1763   -3.7927   -5.9667 H   0  0
    0.8656   -6.2935   -6.4929 H   0  0
   -1.2113   -4.0509   -9.0515 H   0  0
    3.0091   -2.7772   -7.1704 H   0  0
    0.0373   -0.9329   -9.8937 H   0  0
   -3.3126   -3.5052   -1.4369 H   0  0
   -3.7019   -1.7876   -1.4465 H   0  0
   -2.6066   -2.4285   -0.1582 H   0  0
  1  2  1  0  0  0
  2  3  2  0  0  0
  3  4  1  0  0  0
  4  5  2  0  0  0
  5  6  1  0  0  0
  1  6  2  0  0  0
  7  8  1  0  0  0
  6  7  1  0  0  0
  8  9  2  0  0  0
  4 10  1  0  0  0
 10 11  1  0  0  0
  3 12  1  0  0  0
  1 13  1  0  0  0
 15 14  1  0  0  0
 15 16  1  0  0  0
 16 17  1  0  0  0
 17 18  1  0  0  0
 18 19  1  0  0  0
 14 19  1  0  0  0
 18 12  1  0  0  0
 20 21  1  0  0  0
 14 20  1  0  0  0
 15 22  1  0  0  0
 16 23  1  0  0  0
 17 24  1  0  0  0
 13 25  1  0  0  0
 25 27  1  0  0  0
 25 26  2  0  0  0
  2 28  1  0  0  0
  5 29  1  0  0  0
  7 30  1  0  0  0
  7 31  1  0  0  0
  8 32  1  0  0  0
  9 33  1  0  0  0
  9 34  1  0  0  0
 11 35  1  0  0  0
 11 36  1  0  0  0
 11 37  1  0  0  0
 13 38  1  0  0  0
 14 39  1  0  0  0
 15 40  1  0  0  0
 16 41  1  0  0  0
 17 42  1  0  0  0
 18 43  1  0  0  0
 20 44  1  0  0  0
 20 45  1  0  0  0
 21 46  1  0  0  0
 22 47  1  0  0  0
 23 48  1  0  0  0
 24 49  1  0  0  0
 27 50  1  0  0  0
 27 51  1  0  0  0
 27 52  1  0  0  0
M  END
> <Clean Energy>
228948

$$$$
TMMH2018_9
  DSViewer          3D                             0

 79 81  0  0  0  0  0  0  0  0999 V2000
   -5.9844   -2.2889   -1.7922 C   0  0
   -4.8960   -3.3116   -1.8283 C   0  0
   -3.8290   -3.1728   -2.6311 C   0  0
   -3.7192   -1.9275   -3.4794 C   0  0
   -4.6545   -0.9957   -3.3641 C   0  0
   -5.8151   -1.1614   -2.5105 C   0  0
   -6.8171   -0.0386   -2.5367 C   0  0
   -7.7014   -0.2426   -3.7133 C   0  0
   -7.8484    0.7419   -4.5947 C   0  0
   -2.6382   -1.6017   -4.3826 O   0  0
   -1.5595   -2.5308   -4.5151 C   0  0
   -2.8227   -4.1849   -2.6872 O   0  0
   -7.2516   -2.5155   -1.0638 N   0  0
   -0.9602   -3.7353    0.2463 C   0  0  2  0  0  0
   -0.0099   -4.9323    0.2176 C   0  0  2  0  0  0
   -0.8672   -6.2168   -0.0959 C   0  0  1  0  0  0
   -1.4957   -5.9709   -1.5271 C   0  0  2  0  0  0
   -2.3785   -4.6768   -1.4203 C   0  0  1  0  0  0
   -1.5896   -3.5738   -0.9911 O   0  0
   -0.1329   -2.4704    0.4857 C   0  0
   -0.9885   -1.3303    0.4554 O   0  0
   -0.2228   -0.1742    0.5731 C   0  0
   -0.8858    1.1684    0.5238 C   0  0
    1.0065   -0.2498    0.6836 O   0  0
    0.6526   -4.9833    1.5236 O   0  0
    0.0030   -7.3862   -0.0947 O   0  0
   -2.2889   -7.1371   -1.9259 O   0  0
   -2.7536   -7.3273   -3.2744 C   0  0
   -3.4518   -8.3224   -3.4973 O   0  0
   -2.3754   -6.4605   -4.4575 C   0  0
   -0.5568   -8.7103    0.0334 C   0  0
    0.2227   -9.6674   -0.0196 O   0  0
   -2.0163   -9.0051    0.3626 C   0  0
    1.8880   -5.7283    1.6722 C   0  0
    2.3910   -5.7800    2.7995 O   0  0
    2.6807   -6.3451    0.5176 C   0  0
   -7.6481   -3.7303   -0.6057 C   0  0
   -6.9415   -4.7325   -0.7207 O   0  0
   -9.0056   -3.9120   -0.0250 C   0  0
  -10.7352   -5.3622    0.8748 C   0  0
   -9.3874   -5.1377    0.3451 C   0  0
   -9.9553   -2.7923    0.1073 C   0  0
  -11.1793   -3.0029    0.5854 C   0  0
  -11.5880   -4.3484    0.9865 C   0  0
   -4.9926   -4.1802   -1.2445 H   0  0
   -4.5654   -0.1070   -3.9352 H   0  0
   -6.3135    0.9318   -2.6523 H   0  0
   -7.4312   -0.0836   -1.6321 H   0  0
   -8.1876   -1.1727   -3.8606 H   0  0
   -7.3388    1.6628   -4.4477 H   0  0
   -8.4674    0.6078   -5.4430 H   0  0
   -0.8221   -2.1365   -5.2270 H   0  0
   -1.9456   -3.4912   -4.8815 H   0  0
   -1.0785   -2.6776   -3.5342 H   0  0
   -7.8793   -1.7826   -0.9700 H   0  0
   -1.7129   -3.8640    1.0352 H   0  0
    0.7363   -4.7640   -0.5689 H   0  0
   -1.6339   -6.3254    0.6793 H   0  0
   -0.6611   -5.8233   -2.2259 H   0  0
   -3.1951   -4.8715   -0.7176 H   0  0
    0.6057   -2.3805   -0.3246 H   0  0
    0.3873   -2.5304    1.4509 H   0  0
   -0.1369    1.9740    0.4987 H   0  0
   -1.5304    1.2732    1.4069 H   0  0
   -1.5485    1.2096   -0.3541 H   0  0
   -3.1165   -5.6513   -4.5333 H   0  0
   -2.4220   -7.0489   -5.3843 H   0  0
   -1.3891   -6.0010   -4.3112 H   0  0
   -2.1168  -10.0242    0.7620 H   0  0
   -2.6033   -8.9285   -0.5594 H   0  0
   -2.4094   -8.2548    1.0640 H   0  0
    3.7323   -6.4798    0.8078 H   0  0
    2.5861   -5.7326   -0.3909 H   0  0
    2.2544   -7.3310    0.2949 H   0  0
  -11.0340   -6.3396    1.1624 H   0  0
   -8.7189   -5.9526    0.2408 H   0  0
   -9.6678   -1.8162   -0.1859 H   0  0
  -11.8608   -2.1951    0.6733 H   0  0
  -12.5657   -4.5150    1.3642 H   0  0
  1  2  1  0  0  0
  2  3  2  0  0  0
  3  4  1  0  0  0
  4  5  2  0  0  0
  5  6  1  0  0  0
  1  6  2  0  0  0
  7  8  1  0  0  0
  6  7  1  0  0  0
  8  9  2  0  0  0
  4 10  1  0  0  0
 10 11  1  0  0  0
  3 12  1  0  0  0
  1 13  1  0  0  0
 15 14  1  0  0  0
 15 16  1  0  0  0
 16 17  1  0  0  0
 17 18  1  0  0  0
 18 19  1  0  0  0
 14 19  1  0  0  0
 18 12  1  0  0  0
 20 21  1  0  0  0
 14 20  1  0  0  0
 21 22  1  0  0  0
 22 23  1  0  0  0
 22 24  2  0  0  0
 15 25  1  0  0  0
 16 26  1  0  0  0
 17 27  1  0  0  0
 27 28  1  0  0  0
 28 30  1  0  0  0
 26 31  1  0  0  0
 31 33  1  0  0  0
 25 34  1  0  0  0
 34 35  2  0  0  0
 34 36  1  0  0  0
 31 32  2  0  0  0
 28 29  2  0  0  0
 13 37  1  0  0  0
 37 39  1  0  0  0
 37 38  2  0  0  0
 40 41  1  0  0  0
 42 43  2  0  0  0
 43 44  1  0  0  0
 40 44  2  0  0  0
 41 39  2  0  0  0
 39 42  1  0  0  0
  2 45  1  0  0  0
  5 46  1  0  0  0
  7 47  1  0  0  0
  7 48  1  0  0  0
  8 49  1  0  0  0
  9 50  1  0  0  0
  9 51  1  0  0  0
 11 52  1  0  0  0
 11 53  1  0  0  0
 11 54  1  0  0  0
 13 55  1  0  0  0
 14 56  1  0  0  0
 15 57  1  0  0  0
 16 58  1  0  0  0
 17 59  1  0  0  0
 18 60  1  0  0  0
 20 61  1  0  0  0
 20 62  1  0  0  0
 23 63  1  0  0  0
 23 64  1  0  0  0
 23 65  1  0  0  0
 30 66  1  0  0  0
 30 67  1  0  0  0
 30 68  1  0  0  0
 33 69  1  0  0  0
 33 70  1  0  0  0
 33 71  1  0  0  0
 36 72  1  0  0  0
 36 73  1  0  0  0
 36 74  1  0  0  0
 40 75  1  0  0  0
 41 76  1  0  0  0
 42 77  1  0  0  0
 43 78  1  0  0  0
 44 79  1  0  0  0
M  END
> <Clean Energy>
6396.54

$$$$
TMMH2018_9'
  DSViewer          3D                             0

 59 61  0  0  0  0  0  0  0  0999 V2000
    0.5991   -1.7183   -2.5031 C   0  0
    0.8699   -1.6941   -3.9613 C   0  0
    2.1116   -1.5214   -4.4526 C   0  0
    3.2495   -1.3358   -3.4571 C   0  0
    2.9709   -1.3250   -2.1595 C   0  0
    1.6207   -1.5124   -1.6561 C   0  0
    1.4371   -1.5162   -0.1525 C   0  0
    0.8513   -0.1923    0.3144 C   0  0
    1.2786    0.9756   -0.1709 C   0  0
    4.6447   -1.1457   -3.7757 O   0  0
    5.0315   -1.1453   -5.1464 C   0  0
    2.3735   -1.5017   -5.8964 O   0  0
   -0.7535   -1.9750   -1.9874 N   0  0
    0.9718   -4.0336   -7.1004 C   0  0  2  0  0  0
    1.5294   -3.8729   -8.5651 C   0  0  2  0  0  0
    2.5348   -2.6591   -8.7468 C   0  0  1  0  0  0
    1.7349   -1.3844   -8.2998 C   0  0  2  0  0  0
    1.2386   -1.5143   -6.8190 C   0  0  1  0  0  0
    0.3570   -2.7333   -6.7245 O   0  0
    2.0031   -4.5287   -6.0463 C   0  0
    2.5120   -5.7931   -6.4622 O   0  0
    0.4021   -3.6117   -9.3996 O   0  0
    3.7835   -2.7866   -8.0285 O   0  0
    0.5807   -1.2439   -9.1255 O   0  0
   -1.7354   -2.5549   -2.7223 C   0  0
   -1.5479   -2.9137   -3.8876 O   0  0
   -3.0677   -2.8353   -2.1429 C   0  0
   -4.0375   -3.5718   -2.9577 C   0  0
   -3.4023   -2.4507   -0.9096 C   0  0
   -4.7307   -2.7612   -0.3787 C   0  0
   -5.6064   -3.4333   -1.1227 C   0  0
   -5.2427   -3.8585   -2.4715 C   0  0
    0.0645   -1.8196   -4.6060 H   0  0
    3.7607   -1.1865   -1.4662 H   0  0
    2.4236   -1.6339    0.3170 H   0  0
    0.7437   -2.3107    0.1573 H   0  0
    0.1018   -0.1960    1.0645 H   0  0
    2.0423    1.0088   -0.9041 H   0  0
    0.8518    1.8793    0.1842 H   0  0
    6.1167   -0.9874   -5.2197 H   0  0
    4.5070   -0.3385   -5.6783 H   0  0
    4.7728   -2.1126   -5.5969 H   0  0
   -0.9535   -1.7552   -1.0581 H   0  0
    0.1973   -4.8124   -7.1184 H   0  0
    1.9930   -4.8140   -8.8897 H   0  0
    2.8034   -2.5741   -9.8085 H   0  0
    2.3580   -0.4868   -8.4164 H   0  0
    0.6384   -0.6244   -6.5846 H   0  0
    1.4951   -4.6395   -5.0773 H   0  0
    2.8181   -3.8359   -5.9318 H   0  0
    1.7621   -6.4339   -6.5508 H   0  0
   -0.2442   -4.3543   -9.3206 H   0  0
    3.6733   -2.8012   -7.0985 H   0  0
    0.8628   -1.1505  -10.0693 H   0  0
   -3.7755   -3.8839   -3.9369 H   0  0
   -2.7110   -1.9201   -0.3108 H   0  0
   -4.9952   -2.4520    0.6001 H   0  0
   -6.5675   -3.6596   -0.7364 H   0  0
   -5.9386   -4.3966   -3.0640 H   0  0
  1  2  1  0  0  0
  2  3  2  0  0  0
  3  4  1  0  0  0
  4  5  2  0  0  0
  5  6  1  0  0  0
  1  6  2  0  0  0
  7  8  1  0  0  0
  6  7  1  0  0  0
  8  9  2  0  0  0
  4 10  1  0  0  0
 10 11  1  0  0  0
  3 12  1  0  0  0
  1 13  1  0  0  0
 15 14  1  0  0  0
 15 16  1  0  0  0
 16 17  1  0  0  0
 17 18  1  0  0  0
 18 19  1  0  0  0
 14 19  1  0  0  0
 18 12  1  0  0  0
 20 21  1  0  0  0
 14 20  1  0  0  0
 15 22  1  0  0  0
 16 23  1  0  0  0
 17 24  1  0  0  0
 13 25  1  0  0  0
 25 27  1  0  0  0
 25 26  2  0  0  0
 29 30  1  0  0  0
 30 31  2  0  0  0
 31 32  1  0  0  0
 28 32  2  0  0  0
 28 27  1  0  0  0
 27 29  2  0  0  0
  2 33  1  0  0  0
  5 34  1  0  0  0
  7 35  1  0  0  0
  7 36  1  0  0  0
  8 37  1  0  0  0
  9 38  1  0  0  0
  9 39  1  0  0  0
 11 40  1  0  0  0
 11 41  1  0  0  0
 11 42  1  0  0  0
 13 43  1  0  0  0
 14 44  1  0  0  0
 15 45  1  0  0  0
 16 46  1  0  0  0
 17 47  1  0  0  0
 18 48  1  0  0  0
 20 49  1  0  0  0
 20 50  1  0  0  0
 21 51  1  0  0  0
 22 52  1  0  0  0
 23 53  1  0  0  0
 24 54  1  0  0  0
 28 55  1  0  0  0
 29 56  1  0  0  0
 30 57  1  0  0  0
 31 58  1  0  0  0
 32 59  1  0  0  0
M  END
> <Clean Energy>
7612.7

$$$$
TMMH2018_10
  DSViewer          3D                             0

 82 84  0  0  0  0  0  0  0  0999 V2000
   -6.4994   -2.7097   -1.9639 C   0  0
   -5.4953   -3.7850   -1.8252 C   0  0
   -4.1912   -3.5398   -1.8072 C   0  0
   -3.7068   -2.1356   -2.0296 C   0  0
   -4.6297   -1.1705   -2.2047 C   0  0
   -6.0512   -1.4567   -2.1515 C   0  0
   -6.9678   -0.2761   -2.2961 C   0  0
   -7.4520   -0.2492   -3.7109 C   0  0
   -7.4562    0.8965   -4.3858 C   0  0
   -2.3015   -1.8836   -2.1450 O   0  0
   -1.8932   -0.5476   -2.5031 C   0  0
   -3.3912   -4.7151   -1.5773 O   0  0
   -7.9452   -2.9785   -1.8418 N   0  0
   -0.1362   -3.6884   -0.1517 C   0  0  2  0  0  0
    0.7248   -4.9275   -0.3759 C   0  0  2  0  0  0
   -0.1921   -6.1621   -0.0930 C   0  0  1  0  0  0
   -1.4070   -6.1064   -1.0820 C   0  0  2  0  0  0
   -2.1405   -4.7261   -0.8315 C   0  0  1  0  0  0
   -1.2481   -3.6535   -1.0848 O   0  0
    0.7358   -2.4398   -0.3220 C   0  0
   -0.0539   -1.2860   -0.0330 O   0  0
    0.7316   -0.1370   -0.0873 C   0  0
    0.1141    1.1996    0.2099 C   0  0
    1.9339   -0.2156   -0.3627 O   0  0
    1.8351   -4.8367    0.5861 O   0  0
    0.5812   -7.3927   -0.2523 O   0  0
   -2.2964   -7.2280   -0.8185 O   0  0
   -3.2322   -7.6587   -1.8430 C   0  0
   -4.0030   -8.5825   -1.5624 O   0  0
   -3.2351   -7.1481   -3.2869 C   0  0
    0.1260   -8.6475    0.3127 C   0  0
    0.8127   -9.6508    0.0927 O   0  0
   -1.0655   -8.8055    1.2535 C   0  0
    3.0143   -5.6538    0.4446 C   0  0
    3.8813   -5.5582    1.3200 O   0  0
    3.3226   -6.5324   -0.7572 C   0  0
   -8.4557   -4.1493   -1.3835 C   0  0
   -7.7354   -5.0916   -1.0524 O   0  0
   -9.9095   -4.3270   -1.2044 C   0  0
  -10.8765   -3.2745   -1.5529 C   0  0
  -10.3479   -5.4748   -0.6844 C   0  0
  -11.7739   -5.6825   -0.4582 C   0  0
  -12.6440   -4.7277   -0.7690 C   0  0
  -12.1762   -3.4683   -1.3444 C   0  0
  -14.1017   -4.9428   -0.5238 C   0  0
   -5.8056   -4.7766   -1.6823 H   0  0
   -4.3575   -0.1691   -2.3883 H   0  0
   -6.4602    0.6713   -2.0650 H   0  0
   -7.8477   -0.4429   -1.6611 H   0  0
   -7.7644   -1.1467   -4.1826 H   0  0
   -7.1218    1.7881   -3.9171 H   0  0
   -7.7889    0.9184   -5.3926 H   0  0
   -0.7961   -0.5095   -2.5626 H   0  0
   -2.2407    0.1640   -1.7406 H   0  0
   -2.3194   -0.2800   -3.4817 H   0  0
   -8.5779   -2.2678   -2.0566 H   0  0
   -0.5202   -3.6987    0.8779 H   0  0
    1.1076   -4.9185   -1.4046 H   0  0
   -0.5441   -6.0790    0.9425 H   0  0
   -1.0347   -6.1739   -2.1101 H   0  0
   -2.4345   -4.6601    0.2244 H   0  0
    1.1332   -2.3886   -1.3444 H   0  0
    1.5668   -2.4864    0.3946 H   0  0
    0.8847    1.9777    0.2967 H   0  0
   -0.4921    1.1238    1.1250 H   0  0
   -0.5813    1.4489   -0.6048 H   0  0
   -3.8915   -7.7677   -3.9141 H   0  0
   -2.2050   -7.1405   -3.6750 H   0  0
   -3.5829   -6.1107   -3.3019 H   0  0
   -0.9151   -9.6741    1.9095 H   0  0
   -1.9580   -8.9972    0.6415 H   0  0
   -1.2416   -7.8852    1.8262 H   0  0
    4.4061   -6.6989   -0.8343 H   0  0
    2.9100   -6.0931   -1.6754 H   0  0
    2.8355   -7.5037   -0.6054 H   0  0
  -10.5398   -2.3595   -1.9674 H   0  0
   -9.6565   -6.2342   -0.4231 H   0  0
  -12.1161   -6.5945   -0.0382 H   0  0
  -12.8733   -2.7095   -1.5932 H   0  0
  -14.7010   -4.2072   -1.0777 H   0  0
  -14.2864   -4.8239    0.5539 H   0  0
  -14.3709   -5.9765   -0.7830 H   0  0
  1  2  1  0  0  0
  2  3  2  0  0  0
  3  4  1  0  0  0
  4  5  2  0  0  0
  5  6  1  0  0  0
  1  6  2  0  0  0
  7  8  1  0  0  0
  6  7  1  0  0  0
  8  9  2  0  0  0
  4 10  1  0  0  0
 10 11  1  0  0  0
  3 12  1  0  0  0
  1 13  1  0  0  0
 15 14  1  0  0  0
 15 16  1  0  0  0
 16 17  1  0  0  0
 17 18  1  0  0  0
 18 19  1  0  0  0
 14 19  1  0  0  0
 18 12  1  0  0  0
 20 21  1  0  0  0
 14 20  1  0  0  0
 21 22  1  0  0  0
 22 23  1  0  0  0
 22 24  2  0  0  0
 15 25  1  0  0  0
 16 26  1  0  0  0
 17 27  1  0  0  0
 27 28  1  0  0  0
 28 30  1  0  0  0
 26 31  1  0  0  0
 31 33  1  0  0  0
 25 34  1  0  0  0
 34 35  2  0  0  0
 34 36  1  0  0  0
 31 32  2  0  0  0
 28 29  2  0  0  0
 13 37  1  0  0  0
 37 38  2  0  0  0
 37 39  1  0  0  0
 41 42  1  0  0  0
 42 43  2  0  0  0
 43 44  1  0  0  0
 40 44  2  0  0  0
 40 39  1  0  0  0
 39 41  2  0  0  0
 43 45  1  0  0  0
  2 46  1  0  0  0
  5 47  1  0  0  0
  7 48  1  0  0  0
  7 49  1  0  0  0
  8 50  1  0  0  0
  9 51  1  0  0  0
  9 52  1  0  0  0
 11 53  1  0  0  0
 11 54  1  0  0  0
 11 55  1  0  0  0
 13 56  1  0  0  0
 14 57  1  0  0  0
 15 58  1  0  0  0
 16 59  1  0  0  0
 17 60  1  0  0  0
 18 61  1  0  0  0
 20 62  1  0  0  0
 20 63  1  0  0  0
 23 64  1  0  0  0
 23 65  1  0  0  0
 23 66  1  0  0  0
 30 67  1  0  0  0
 30 68  1  0  0  0
 30 69  1  0  0  0
 33 70  1  0  0  0
 33 71  1  0  0  0
 33 72  1  0  0  0
 36 73  1  0  0  0
 36 74  1  0  0  0
 36 75  1  0  0  0
 40 76  1  0  0  0
 41 77  1  0  0  0
 42 78  1  0  0  0
 44 79  1  0  0  0
 45 80  1  0  0  0
 45 81  1  0  0  0
 45 82  1  0  0  0
M  END
> <Clean Energy>
1186.98

$$$$
TMMH2018_10'
  DSViewer          3D                             0

 62 64  0  0  0  0  0  0  0  0999 V2000
    0.7192   -1.5358   -2.6777 C   0  0
    0.9945   -1.6403   -4.0980 C   0  0
    2.2227   -1.5144   -4.5978 C   0  0
    3.3366   -1.2239   -3.6873 C   0  0
    3.0832   -1.0593   -2.3712 C   0  0
    1.7149   -1.2172   -1.8460 C   0  0
    1.4846   -1.0683   -0.3676 C   0  0
    0.7945    0.2496   -0.1457 C   0  0
    1.4740    1.3901   -0.2406 C   0  0
    4.6388   -1.0879   -4.2882 O   0  0
    5.7278   -0.7429   -3.4090 C   0  0
    2.5067   -1.6261   -6.0232 O   0  0
   -0.6352   -1.7742   -2.2358 N   0  0
    0.5438   -3.9639   -7.0497 C   0  0  2  0  0  0
    1.1093   -4.0384   -8.5078 C   0  0  2  0  0  0
    2.3593   -3.0852   -8.7683 C   0  0  1  0  0  0
    1.8518   -1.6359   -8.4360 C   0  0  2  0  0  0
    1.3591   -1.5380   -6.9586 C   0  0  1  0  0  0
    0.2407   -2.5416   -6.7811 O   0  0
    1.4434   -4.6002   -5.9620 C   0  0
    1.6377   -5.9744   -6.2882 O   0  0
    0.0579   -3.5993   -9.3704 O   0  0
    3.5604   -3.4151   -8.0210 O   0  0
    0.7425   -1.3275   -9.2769 O   0  0
   -1.3897   -2.7162   -2.8601 C   0  0
   -0.9106   -3.4204   -3.7546 O   0  0
   -2.7803   -2.9751   -2.5367 C   0  0
   -3.4222   -4.1053   -3.2057 C   0  0
   -3.4782   -2.2083   -1.7037 C   0  0
   -4.9009   -2.4912   -1.4837 C   0  0
   -5.4815   -3.5140   -2.1117 C   0  0
   -4.7074   -4.3623   -3.0006 C   0  0
   -6.9339   -3.7891   -1.9203 C   0  0
    0.1902   -1.8354   -4.7251 H   0  0
    3.8517   -0.8286   -1.6830 H   0  0
    2.4607   -1.0583    0.1398 H   0  0
    0.8127   -1.8632   -0.0168 H   0  0
   -0.2384    0.2684    0.0954 H   0  0
    2.5084    1.3739   -0.4755 H   0  0
    0.9797    2.3159   -0.0814 H   0  0
    6.6571   -0.6689   -3.9927 H   0  0
    5.8425   -1.5162   -2.6364 H   0  0
    5.5210    0.2278   -2.9315 H   0  0
   -1.0105   -1.2657   -1.4761 H   0  0
   -0.3870   -4.5485   -7.0153 H   0  0
    1.3503   -5.0802   -8.7553 H   0  0
    2.6315   -3.1463   -9.8304 H   0  0
    2.6432   -0.8975   -8.6218 H   0  0
    0.9438   -0.5325   -6.8074 H   0  0
    0.9329   -4.5247   -4.9904 H   0  0
    2.3949   -4.1060   -5.8935 H   0  0
    0.7548   -6.4261   -6.3365 H   0  0
   -0.7382   -4.1704   -9.2389 H   0  0
    3.4600   -3.3187   -7.0833 H   0  0
    1.0264   -1.3713  -10.2228 H   0  0
   -2.8579   -4.7235   -3.8585 H   0  0
   -3.0195   -1.3806   -1.2273 H   0  0
   -5.4717   -1.8725   -0.8415 H   0  0
   -5.1687   -5.1830   -3.4888 H   0  0
   -7.1407   -4.8579   -2.0749 H   0  0
   -7.4839   -3.2244   -2.6886 H   0  0
   -7.2639   -3.4351   -0.9362 H   0  0
  1  2  1  0  0  0
  2  3  2  0  0  0
  3  4  1  0  0  0
  4  5  2  0  0  0
  5  6  1  0  0  0
  1  6  2  0  0  0
  7  8  1  0  0  0
  6  7  1  0  0  0
  8  9  2  0  0  0
  4 10  1  0  0  0
 10 11  1  0  0  0
  3 12  1  0  0  0
  1 13  1  0  0  0
 15 14  1  0  0  0
 15 16  1  0  0  0
 16 17  1  0  0  0
 17 18  1  0  0  0
 18 19  1  0  0  0
 14 19  1  0  0  0
 18 12  1  0  0  0
 20 21  1  0  0  0
 14 20  1  0  0  0
 15 22  1  0  0  0
 16 23  1  0  0  0
 17 24  1  0  0  0
 13 25  1  0  0  0
 25 27  1  0  0  0
 25 26  2  0  0  0
 29 30  1  0  0  0
 30 31  2  0  0  0
 31 32  1  0  0  0
 28 32  2  0  0  0
 28 27  1  0  0  0
 27 29  2  0  0  0
 31 33  1  0  0  0
  2 34  1  0  0  0
  5 35  1  0  0  0
  7 36  1  0  0  0
  7 37  1  0  0  0
  8 38  1  0  0  0
  9 39  1  0  0  0
  9 40  1  0  0  0
 11 41  1  0  0  0
 11 42  1  0  0  0
 11 43  1  0  0  0
 13 44  1  0  0  0
 14 45  1  0  0  0
 15 46  1  0  0  0
 16 47  1  0  0  0
 17 48  1  0  0  0
 18 49  1  0  0  0
 20 50  1  0  0  0
 20 51  1  0  0  0
 21 52  1  0  0  0
 22 53  1  0  0  0
 23 54  1  0  0  0
 24 55  1  0  0  0
 28 56  1  0  0  0
 29 57  1  0  0  0
 30 58  1  0  0  0
 32 59  1  0  0  0
 33 60  1  0  0  0
 33 61  1  0  0  0
 33 62  1  0  0  0
M  END
> <Clean Energy>
2086.62

$$$$
TMMH2018_11
  DSViewer          3D                             0

 81 83  0  0  0  0  0  0  0  0999 V2000
   -1.1309   -3.2814    2.7262 C   0  0
   -2.3900   -3.3225    3.4993 C   0  0
   -3.5278   -2.8279    3.0274 C   0  0
   -3.5239   -2.1158    1.7041 C   0  0
   -2.3599   -2.0412    1.0312 C   0  0
   -1.1457   -2.6508    1.5398 C   0  0
    0.0639   -2.5488    0.6559 C   0  0
    0.9099   -1.4307    1.1767 C   0  0
    1.3799   -0.5122    0.3378 C   0  0
   -4.7158   -1.4626    1.2500 O   0  0
   -4.6246   -0.6717    0.0473 C   0  0
   -4.6541   -3.0435    3.8996 O   0  0
    0.0920   -3.9567    3.2003 N   0  0
   -7.7394   -3.0089    1.8620 C   0  0  2  0  0  0
   -8.8261   -2.7987    2.9114 C   0  0  2  0  0  0
   -8.4118   -3.6500    4.1560 C   0  0  1  0  0  0
   -7.0123   -3.1444    4.6513 C   0  0  2  0  0  0
   -6.0107   -3.3040    3.4360 C   0  0  1  0  0  0
   -6.4575   -2.5259    2.3392 O   0  0
   -8.1356   -2.2699    0.5796 C   0  0
   -7.1532   -2.5334   -0.4226 O   0  0
   -7.5265   -1.9494   -1.6306 C   0  0
   -6.6507   -2.1178   -2.8390 C   0  0
   -8.5796   -1.3078   -1.7142 O   0  0
  -10.0792   -3.2804    2.3078 O   0  0
   -9.4328   -3.5258    5.1953 O   0  0
   -6.5864   -3.9419    5.7919 O   0  0
   -5.5703   -3.4237    6.6918 C   0  0
   -5.2027   -4.1517    7.6198 O   0  0
   -5.0251   -1.9927    6.6562 C   0  0
   -9.5248   -4.4830    6.2797 C   0  0
  -10.3847   -4.2806    7.1434 O   0  0
   -8.7262   -5.7802    6.3755 C   0  0
  -11.3605   -2.9431    2.8757 C   0  0
  -12.3646   -3.4271    2.3422 O   0  0
  -11.5751   -1.9472    4.0040 C   0  0
    0.1116   -4.8408    4.2291 C   0  0
   -0.9049   -5.1297    4.8620 O   0  0
    1.3535   -5.5467    4.6016 C   0  0
    2.6313   -5.2944    3.9189 C   0  0
    1.2973   -6.4585    5.5737 C   0  0
    2.4933   -7.2040    5.9539 C   0  0
    3.6466   -6.9781    5.3322 C   0  0
    3.7199   -5.9759    4.2678 C   0  0
    4.7854   -7.6987    5.6913 N   0  3
    4.7242   -8.5095    6.5408 O   0  0
    5.9328   -7.4766    5.0705 O   0  5
   -2.4168   -3.8010    4.4326 H   0  0
   -2.2833   -1.5361    0.1095 H   0  0
   -0.2071   -2.3474   -0.3903 H   0  0
    0.6492   -3.4710    0.7675 H   0  0
    1.1102   -1.3558    2.2158 H   0  0
    1.1585   -0.5786   -0.6979 H   0  0
    1.9716    0.2882    0.7042 H   0  0
   -5.6080   -0.2303   -0.1697 H   0  0
   -4.3191   -1.3098   -0.7942 H   0  0
   -3.8879    0.1334    0.1885 H   0  0
    0.9308   -3.8017    2.7273 H   0  0
   -7.6654   -4.0806    1.6301 H   0  0
   -8.8996   -1.7285    3.1440 H   0  0
   -8.3419   -4.6951    3.8304 H   0  0
   -7.0978   -2.0955    4.9559 H   0  0
   -6.0056   -4.3519    3.1081 H   0  0
   -8.2115   -1.1910    0.7697 H   0  0
   -9.1050   -2.6524    0.2333 H   0  0
   -7.1486   -1.7373   -3.7414 H   0  0
   -6.3779   -3.1785   -2.9433 H   0  0
   -5.7122   -1.5708   -2.6666 H   0  0
   -4.4647   -1.7712    7.5755 H   0  0
   -5.8542   -1.2833    6.5121 H   0  0
   -4.3627   -1.8844    5.7912 H   0  0
   -9.2889   -6.5274    6.9521 H   0  0
   -7.7958   -5.5664    6.9200 H   0  0
   -8.4546   -6.1516    5.3784 H   0  0
  -12.5969   -1.5451    3.9622 H   0  0
  -10.8201   -1.1504    3.9683 H   0  0
  -11.4540   -2.4781    4.9567 H   0  0
    2.6875   -4.5720    3.1463 H   0  0
    0.3778   -6.6511    6.0641 H   0  0
    2.4381   -7.9319    6.7237 H   0  0
    4.6395   -5.7942    3.7732 H   0  0
  1  2  1  0  0  0
  2  3  2  0  0  0
  3  4  1  0  0  0
  4  5  2  0  0  0
  5  6  1  0  0  0
  1  6  2  0  0  0
  7  8  1  0  0  0
  6  7  1  0  0  0
  8  9  2  0  0  0
  4 10  1  0  0  0
 10 11  1  0  0  0
  3 12  1  0  0  0
  1 13  1  0  0  0
 15 14  1  0  0  0
 15 16  1  0  0  0
 16 17  1  0  0  0
 17 18  1  0  0  0
 18 19  1  0  0  0
 14 19  1  0  0  0
 18 12  1  0  0  0
 20 21  1  0  0  0
 14 20  1  0  0  0
 21 22  1  0  0  0
 22 23  1  0  0  0
 22 24  2  0  0  0
 15 25  1  0  0  0
 16 26  1  0  0  0
 17 27  1  0  0  0
 27 28  1  0  0  0
 28 30  1  0  0  0
 26 31  1  0  0  0
 31 33  1  0  0  0
 25 34  1  0  0  0
 34 35  2  0  0  0
 34 36  1  0  0  0
 31 32  2  0  0  0
 28 29  2  0  0  0
 13 37  1  0  0  0
 37 38  2  0  0  0
 37 39  1  0  0  0
 41 42  1  0  0  0
 42 43  2  0  0  0
 43 44  1  0  0  0
 40 44  2  0  0  0
 40 39  1  0  0  0
 39 41  2  0  0  0
 43 45  1  0  0  0
 45 46  2  0  0  0
 45 47  1  0  0  0
  2 48  1  0  0  0
  5 49  1  0  0  0
  7 50  1  0  0  0
  7 51  1  0  0  0
  8 52  1  0  0  0
  9 53  1  0  0  0
  9 54  1  0  0  0
 11 55  1  0  0  0
 11 56  1  0  0  0
 11 57  1  0  0  0
 13 58  1  0  0  0
 14 59  1  0  0  0
 15 60  1  0  0  0
 16 61  1  0  0  0
 17 62  1  0  0  0
 18 63  1  0  0  0
 20 64  1  0  0  0
 20 65  1  0  0  0
 23 66  1  0  0  0
 23 67  1  0  0  0
 23 68  1  0  0  0
 30 69  1  0  0  0
 30 70  1  0  0  0
 30 71  1  0  0  0
 33 72  1  0  0  0
 33 73  1  0  0  0
 33 74  1  0  0  0
 36 75  1  0  0  0
 36 76  1  0  0  0
 36 77  1  0  0  0
 40 78  1  0  0  0
 41 79  1  0  0  0
 42 80  1  0  0  0
 44 81  1  0  0  0
M  CHG  2  45   1  47  -1
M  END
> <Clean Energy>
2.04903e+08

$$$$
TMMH2018_11'
  DSViewer          3D                             0

 61 63  0  0  0  0  0  0  0  0999 V2000
    0.7302   -1.3671   -2.6740 C   0  0
    0.8669   -1.3485   -4.1493 C   0  0
    2.0675   -1.4660   -4.7373 C   0  0
    3.2635   -1.6094   -3.9238 C   0  0
    3.1566   -1.6051   -2.5865 C   0  0
    1.8533   -1.4739   -1.9382 C   0  0
    1.8295   -1.5021   -0.4250 C   0  0
    1.6514   -0.0958    0.1157 C   0  0
    2.3885    0.9214   -0.3333 C   0  0
    4.5058   -1.7423   -4.6398 O   0  0
    5.6998   -1.8857   -3.8480 C   0  0
    2.2712   -1.4614   -6.1716 O   0  0
   -0.5898   -1.2804   -2.0198 N   0  0
    0.4511   -3.6917   -7.3305 C   0  0  2  0  0  0
    0.9507   -3.5782   -8.8173 C   0  0  2  0  0  0
    2.1196   -2.5257   -9.0300 C   0  0  1  0  0  0
    1.5474   -1.1562   -8.5209 C   0  0  2  0  0  0
    1.1141   -1.2484   -7.0196 C   0  0  1  0  0  0
    0.0607   -2.3192   -6.8954 O   0  0
    1.4538   -4.3712   -6.3520 C   0  0
    1.7398   -5.6850   -6.8256 O   0  0
   -0.1641   -3.1275   -9.5845 O   0  0
    3.3790   -2.8536   -8.3788 O   0  0
    0.3871   -0.8173   -9.2788 O   0  0
   -1.7705   -1.4088   -2.6763 C   0  0
   -1.8256   -1.6163   -3.8888 O   0  0
   -3.0538   -1.3394   -1.9462 C   0  0
   -3.1181   -1.0631   -0.5029 C   0  0
   -4.1845   -1.5419   -2.6263 C   0  0
   -5.4736   -1.4935   -1.9408 C   0  0
   -5.5283   -1.2447   -0.6366 C   0  0
   -4.2944   -1.0172    0.1173 C   0  0
   -6.7604   -1.2015    0.0159 N   0  3
   -6.8144   -0.9511    1.3143 O   0  5
   -7.7519   -1.3903   -0.5879 O   0  0
    0.0088   -1.2433   -4.7282 H   0  0
    4.0037   -1.7019   -1.9633 H   0  0
    2.7987   -1.8829   -0.0732 H   0  0
    0.9901   -2.1085   -0.0570 H   0  0
    0.9440    0.0771    0.8865 H   0  0
    3.1171    0.7662   -1.0870 H   0  0
    2.2468    1.8921    0.0697 H   0  0
    6.5694   -1.9780   -4.5143 H   0  0
    5.6222   -2.7882   -3.2231 H   0  0
    5.8253   -1.0019   -3.2048 H   0  0
   -0.6287   -1.1471   -1.0555 H   0  0
   -0.4328   -4.3438   -7.3194 H   0  0
    1.2483   -4.5699   -9.1835 H   0  0
    2.3435   -2.4567  -10.1032 H   0  0
    2.2963   -0.3638   -8.6554 H   0  0
    0.6784   -0.2816   -6.7320 H   0  0
    0.9928   -4.4336   -5.3559 H   0  0
    2.3702   -3.8149   -6.2741 H   0  0
    0.8981   -6.2032   -6.8811 H   0  0
   -0.9112   -3.7661   -9.4841 H   0  0
    3.3284   -2.8653   -7.4353 H   0  0
    0.6300   -0.7441  -10.2350 H   0  0
   -2.2272   -0.8983    0.0465 H   0  0
   -4.1459   -1.7443   -3.6654 H   0  0
   -6.3674   -1.6601   -2.4882 H   0  0
   -4.3376   -0.8168    1.1570 H   0  0
  1  2  1  0  0  0
  2  3  2  0  0  0
  3  4  1  0  0  0
  4  5  2  0  0  0
  5  6  1  0  0  0
  1  6  2  0  0  0
  7  8  1  0  0  0
  6  7  1  0  0  0
  8  9  2  0  0  0
  4 10  1  0  0  0
 10 11  1  0  0  0
  3 12  1  0  0  0
  1 13  1  0  0  0
 15 14  1  0  0  0
 15 16  1  0  0  0
 16 17  1  0  0  0
 17 18  1  0  0  0
 18 19  1  0  0  0
 14 19  1  0  0  0
 18 12  1  0  0  0
 20 21  1  0  0  0
 14 20  1  0  0  0
 15 22  1  0  0  0
 16 23  1  0  0  0
 17 24  1  0  0  0
 13 25  1  0  0  0
 25 27  1  0  0  0
 25 26  2  0  0  0
 29 30  1  0  0  0
 30 31  2  0  0  0
 31 32  1  0  0  0
 28 32  2  0  0  0
 28 27  1  0  0  0
 27 29  2  0  0  0
 31 33  1  0  0  0
 33 34  1  0  0  0
 33 35  2  0  0  0
  2 36  1  0  0  0
  5 37  1  0  0  0
  7 38  1  0  0  0
  7 39  1  0  0  0
  8 40  1  0  0  0
  9 41  1  0  0  0
  9 42  1  0  0  0
 11 43  1  0  0  0
 11 44  1  0  0  0
 11 45  1  0  0  0
 13 46  1  0  0  0
 14 47  1  0  0  0
 15 48  1  0  0  0
 16 49  1  0  0  0
 17 50  1  0  0  0
 18 51  1  0  0  0
 20 52  1  0  0  0
 20 53  1  0  0  0
 21 54  1  0  0  0
 22 55  1  0  0  0
 23 56  1  0  0  0
 24 57  1  0  0  0
 28 58  1  0  0  0
 29 59  1  0  0  0
 30 60  1  0  0  0
 32 61  1  0  0  0
M  CHG  2  33   1  34  -1
M  END
> <Clean Energy>
113917

$$$$
TMMH2018_12
  DSViewer          3D                             0

 73 74  0  0  0  0  0  0  0  0999 V2000
   -4.4095   -0.8991   -1.9675 C   0  0
   -3.6712   -2.1512   -1.8418 C   0  0
   -4.3053   -3.3268   -1.7773 C   0  0
   -5.7615   -3.3626   -1.8255 C   0  0
   -6.4501   -2.2083   -1.8648 C   0  0
   -5.7507   -0.9274   -1.9310 C   0  0
   -6.5777    0.3260   -2.0142 C   0  0
   -6.3641    1.0846   -0.7273 C   0  0
   -7.0423    0.7593    0.3696 C   0  0
   -6.3614   -4.6692   -1.7680 O   0  0
   -7.7975   -4.7230   -1.7564 C   0  0
   -3.6525   -4.6029   -1.6428 O   0  0
   -3.6773    0.3182   -2.1567 N   0  0
   -0.4864   -3.7502    0.0292 C   0  0  2  0  0  0
    0.3908   -4.9769   -0.1950 C   0  0  2  0  0  0
   -0.5568   -6.2208   -0.0568 C   0  0  1  0  0  0
   -1.7039   -6.1016   -1.1307 C   0  0  2  0  0  0
   -2.4326   -4.7303   -0.8431 C   0  0  1  0  0  0
   -1.5095   -3.6588   -0.9767 O   0  0
    0.3607   -2.4796   -0.0030 C   0  0
   -0.5096   -1.3770    0.2695 O   0  0
    0.1976   -0.1823    0.3388 C   0  0
   -0.5448    1.0957    0.6031 C   0  0
    1.4221   -0.1685    0.1726 O   0  0
    1.4111   -4.9533    0.8637 O   0  0
    0.2194   -7.4476   -0.2178 O   0  0
   -2.6170   -7.2249   -0.9912 O   0  0
   -3.5152   -7.5609   -2.0821 C   0  0
   -4.3058   -8.4935   -1.9046 O   0  0
   -3.4658   -6.9321   -3.4778 C   0  0
   -0.2853   -8.7241    0.2468 C   0  0
    0.4107   -9.7219    0.0313 O   0  0
   -1.5473   -8.9167    1.0838 C   0  0
    2.6060   -5.7478    0.7632 C   0  0
    3.3893   -5.7216    1.7188 O   0  0
    3.0431   -6.4956   -0.4844 C   0  0
   -2.1592    0.2497   -2.9481 S   0  0
   -1.1458   -0.5164   -2.1305 O   0  0
   -2.3345   -0.4499   -4.2825 O   0  0
   -1.5677    1.9322   -3.2350 C   0  0
   -2.6311   -2.1119   -1.8257 H   0  0
   -7.5065   -2.1924   -1.8714 H   0  0
   -7.6363    0.0504   -2.1215 H   0  0
   -6.1988    0.9507   -2.8338 H   0  0
   -5.6628    1.8813   -0.6971 H   0  0
   -7.7410   -0.0372    0.3448 H   0  0
   -6.8810    1.2978    1.2711 H   0  0
   -8.1209   -5.7728   -1.7111 H   0  0
   -8.1937   -4.2574   -2.6697 H   0  0
   -8.1779   -4.1866   -0.8734 H   0  0
   -4.1161    1.1948   -2.0894 H   0  0
   -0.9543   -3.8192    1.0211 H   0  0
    0.8570   -4.9105   -1.1866 H   0  0
   -0.9872   -6.1890    0.9515 H   0  0
   -1.2671   -6.1152   -2.1359 H   0  0
   -2.7836   -4.7243    0.1972 H   0  0
    0.8365   -2.3611   -0.9858 H   0  0
    1.1312   -2.5380    0.7776 H   0  0
    0.1324    1.9599    0.5684 H   0  0
   -1.0334    1.0231    1.5854 H   0  0
   -1.3546    1.1949   -0.1383 H   0  0
   -4.0064   -7.5606   -4.1998 H   0  0
   -2.4216   -6.7718   -3.7852 H   0  0
   -3.9440   -5.9465   -3.4360 H   0  0
   -1.4598   -9.8258    1.6948 H   0  0
   -2.3935   -9.0527    0.3963 H   0  0
   -1.7528   -8.0291    1.6971 H   0  0
    4.0251   -6.9633   -0.3258 H   0  0
    3.0798   -5.7882   -1.3247 H   0  0
    2.3026   -7.2490   -0.7455 H   0  0
   -0.6037    1.8970   -3.7632 H   0  0
   -1.4402    2.4446   -2.2708 H   0  0
   -2.3018    2.4778   -3.8469 H   0  0
  1  2  1  0  0  0
  2  3  2  0  0  0
  3  4  1  0  0  0
  4  5  2  0  0  0
  5  6  1  0  0  0
  1  6  2  0  0  0
  7  8  1  0  0  0
  6  7  1  0  0  0
  8  9  2  0  0  0
  4 10  1  0  0  0
 10 11  1  0  0  0
  3 12  1  0  0  0
  1 13  1  0  0  0
 15 14  1  0  0  0
 15 16  1  0  0  0
 16 17  1  0  0  0
 17 18  1  0  0  0
 18 19  1  0  0  0
 14 19  1  0  0  0
 18 12  1  0  0  0
 20 21  1  0  0  0
 14 20  1  0  0  0
 21 22  1  0  0  0
 22 23  1  0  0  0
 22 24  2  0  0  0
 15 25  1  0  0  0
 16 26  1  0  0  0
 17 27  1  0  0  0
 27 28  1  0  0  0
 28 30  1  0  0  0
 26 31  1  0  0  0
 31 33  1  0  0  0
 25 34  1  0  0  0
 34 35  2  0  0  0
 34 36  1  0  0  0
 31 32  2  0  0  0
 28 29  2  0  0  0
 13 37  1  0  0  0
 37 38  2  0  0  0
 37 39  2  0  0  0
 37 40  1  0  0  0
  2 41  1  0  0  0
  5 42  1  0  0  0
  7 43  1  0  0  0
  7 44  1  0  0  0
  8 45  1  0  0  0
  9 46  1  0  0  0
  9 47  1  0  0  0
 11 48  1  0  0  0
 11 49  1  0  0  0
 11 50  1  0  0  0
 13 51  1  0  0  0
 14 52  1  0  0  0
 15 53  1  0  0  0
 16 54  1  0  0  0
 17 55  1  0  0  0
 18 56  1  0  0  0
 20 57  1  0  0  0
 20 58  1  0  0  0
 23 59  1  0  0  0
 23 60  1  0  0  0
 23 61  1  0  0  0
 30 62  1  0  0  0
 30 63  1  0  0  0
 30 64  1  0  0  0
 33 65  1  0  0  0
 33 66  1  0  0  0
 33 67  1  0  0  0
 36 68  1  0  0  0
 36 69  1  0  0  0
 36 70  1  0  0  0
 40 71  1  0  0  0
 40 72  1  0  0  0
 40 73  1  0  0  0
M  END
> <Clean Energy>
7527.94

$$$$
TMMH2018_12'
  DSViewer          3D                             0

 53 54  0  0  0  0  0  0  0  0999 V2000
    0.8574   -1.5771    1.9119 C   0  0
    0.8382   -1.2190    3.3264 C   0  0
    1.8886   -1.4196    4.1156 C   0  0
    3.1506   -2.0394    3.5286 C   0  0
    3.1404   -2.3586    2.2194 C   0  0
    1.9651   -2.1217    1.3912 C   0  0
    2.0573   -2.5115   -0.0555 C   0  0
    2.3833   -1.2915   -0.8573 C   0  0
    2.6113   -1.3992   -2.1628 C   0  0
    4.3099   -2.2665    4.3703 O   0  0
    5.4780   -2.8572    3.7680 C   0  0
    1.6965   -1.0109    5.4976 O   0  0
   -0.3161   -1.3336    1.1252 N   0  0
    1.9871   -3.4789    7.2975 C   0  0  2  0  0  0
    1.6057   -2.7722    8.6504 C   0  0  2  0  0  0
    1.1934   -1.2495    8.4920 C   0  0  1  0  0  0
    2.4221   -0.5492    7.8156 C   0  0  2  0  0  0
    2.7631   -1.2074    6.4361 C   0  0  1  0  0  0
    3.0730   -2.6629    6.6689 O   0  0
    0.7879   -3.7377    6.3340 C   0  0
   -0.1782   -4.5451    7.0040 O   0  0
    2.7735   -2.8081    9.4677 O   0  0
   -0.0321   -1.0102    7.7451 O   0  0
    3.5711   -0.6965    8.6495 O   0  0
   -1.7109   -0.6574    1.8398 S   0  0
   -1.3909    0.7240    2.3793 O   0  0
   -2.1876   -1.5452    2.9743 O   0  0
   -3.0103   -0.5307    0.5912 C   0  0
   -0.0333   -0.7898    3.7430 H   0  0
    3.9788   -2.7895    1.7484 H   0  0
    1.0925   -2.8854   -0.4235 H   0  0
    2.8441   -3.2586   -0.2294 H   0  0
    2.4357   -0.3434   -0.3839 H   0  0
    2.5608   -2.3494   -2.6320 H   0  0
    2.8440   -0.5361   -2.7340 H   0  0
    6.2640   -2.9641    4.5288 H   0  0
    5.8421   -2.2106    2.9557 H   0  0
    5.2239   -3.8487    3.3644 H   0  0
   -0.3442   -1.5554    0.1629 H   0  0
    2.3728   -4.4792    7.5361 H   0  0
    0.8104   -3.3395    9.1529 H   0  0
    1.0265   -0.8212    9.4898 H   0  0
    2.2160    0.5222    7.6889 H   0  0
    3.6519   -0.7043    6.0333 H   0  0
    1.1534   -4.2672    5.4430 H   0  0
    0.3246   -2.8193    6.0233 H   0  0
    0.2401   -5.3991    7.2764 H   0  0
    3.0531   -3.7468    9.5979 H   0  0
    0.0181   -1.2671    6.8379 H   0  0
    3.3925   -0.2839    9.5305 H   0  0
   -3.9131   -0.0958    1.0443 H   0  0
   -3.2413   -1.5327    0.2012 H   0  0
   -2.6656    0.1126   -0.2314 H   0  0
  1  2  1  0  0  0
  2  3  2  0  0  0
  3  4  1  0  0  0
  4  5  2  0  0  0
  5  6  1  0  0  0
  1  6  2  0  0  0
  7  8  1  0  0  0
  6  7  1  0  0  0
  8  9  2  0  0  0
  4 10  1  0  0  0
 10 11  1  0  0  0
  3 12  1  0  0  0
  1 13  1  0  0  0
 15 14  1  0  0  0
 15 16  1  0  0  0
 16 17  1  0  0  0
 17 18  1  0  0  0
 18 19  1  0  0  0
 14 19  1  0  0  0
 18 12  1  0  0  0
 20 21  1  0  0  0
 14 20  1  0  0  0
 15 22  1  0  0  0
 16 23  1  0  0  0
 17 24  1  0  0  0
 13 25  1  0  0  0
 25 28  1  0  0  0
 25 26  2  0  0  0
 25 27  2  0  0  0
  2 29  1  0  0  0
  5 30  1  0  0  0
  7 31  1  0  0  0
  7 32  1  0  0  0
  8 33  1  0  0  0
  9 34  1  0  0  0
  9 35  1  0  0  0
 11 36  1  0  0  0
 11 37  1  0  0  0
 11 38  1  0  0  0
 13 39  1  0  0  0
 14 40  1  0  0  0
 15 41  1  0  0  0
 16 42  1  0  0  0
 17 43  1  0  0  0
 18 44  1  0  0  0
 20 45  1  0  0  0
 20 46  1  0  0  0
 21 47  1  0  0  0
 22 48  1  0  0  0
 23 49  1  0  0  0
 24 50  1  0  0  0
 28 51  1  0  0  0
 28 52  1  0  0  0
 28 53  1  0  0  0
M  END
> <Clean Energy>
178.205

$$$$
TMMH2018_13
  DSViewer          3D                             0

 80 82  0  0  0  0  0  0  0  0999 V2000
   -4.4755   -0.8622   -2.0214 C   0  0
   -3.8142   -2.1862   -2.0266 C   0  0
   -4.5126   -3.3262   -1.8447 C   0  0
   -6.0212   -3.2075   -1.6442 C   0  0
   -6.5651   -1.9987   -1.5735 C   0  0
   -5.7888   -0.7931   -1.7498 C   0  0
   -6.5300    0.5198   -1.6452 C   0  0
   -5.9546    1.2538   -0.4491 C   0  0
   -6.5168    1.1451    0.7506 C   0  0
   -6.9532   -4.2919   -1.4595 O   0  0
   -6.4580   -5.6219   -1.4994 C   0  0
   -3.8621   -4.6371   -1.8275 O   0  0
   -3.7233    0.3436   -2.3186 N   0  0
   -0.7571   -3.7839   -0.0499 C   0  0  2  0  0  0
    0.1482   -4.9923   -0.2372 C   0  0  2  0  0  0
   -0.7728   -6.2551   -0.1366 C   0  0  1  0  0  0
   -1.8854   -6.1592   -1.2536 C   0  0  2  0  0  0
   -2.6532   -4.7906   -0.9911 C   0  0  1  0  0  0
   -1.7426   -3.7070   -1.0869 O   0  0
    0.0733   -2.5069   -0.0642 C   0  0
   -0.8142   -1.4126    0.1669 O   0  0
   -0.1151   -0.2168    0.2338 C   0  0
   -0.8648    1.0576    0.4685 C   0  0
    1.1126   -0.2002    0.0928 O   0  0
    1.1211   -4.9420    0.8638 O   0  0
    0.0492   -7.4599   -0.2739 O   0  0
   -2.7648   -7.3093   -1.1272 O   0  0
   -3.6127   -7.6942   -2.2285 C   0  0
   -4.3760   -8.6506   -2.0558 O   0  0
   -3.5447   -7.0868   -3.6240 C   0  0
   -0.4146   -8.7562    0.1667 C   0  0
    0.3280   -9.7231   -0.0347 O   0  0
   -1.6828   -9.0025    0.9703 C   0  0
    2.3360   -5.7093    0.8366 C   0  0
    3.0645   -5.6505    1.8332 O   0  0
    2.8621   -6.4641   -0.3725 C   0  0
   -2.1765    0.3300   -3.0547 S   0  0
   -1.2180   -0.6270   -2.3813 O   0  0
   -2.3045   -0.1044   -4.5022 O   0  0
   -1.5198    1.9969   -3.0170 C   0  0
   -0.5179    4.6109   -2.9474 C   0  0
    0.2489    3.5488   -3.6027 C   0  0
   -0.2283    2.3021   -3.6362 C   0  0
   -2.2113    2.9724   -2.4221 C   0  0
   -1.6891    4.3337   -2.3860 C   0  0
   -2.7803   -2.2264   -2.1942 H   0  0
   -7.6072   -1.9147   -1.4017 H   0  0
   -7.6038    0.3330   -1.5108 H   0  0
   -6.2950    1.1170   -2.5365 H   0  0
   -5.0809    1.8485   -0.5674 H   0  0
   -7.3790    0.5452    0.8800 H   0  0
   -6.0954    1.6591    1.5803 H   0  0
   -7.2859   -6.3254   -1.3364 H   0  0
   -5.7011   -5.7595   -0.7127 H   0  0
   -6.0058   -5.8114   -2.4817 H   0  0
   -4.1659    1.2016   -2.2814 H   0  0
   -1.2591   -3.8561    0.9250 H   0  0
    0.6517   -4.9184   -1.2098 H   0  0
   -1.2418   -6.2365    0.8555 H   0  0
   -1.4141   -6.1644   -2.2437 H   0  0
   -3.0351   -4.7995    0.0384 H   0  0
    0.5788   -2.3930   -1.0326 H   0  0
    0.8189   -2.5491    0.7408 H   0  0
   -0.2201    1.9299    0.2900 H   0  0
   -1.2248    1.0632    1.5061 H   0  0
   -1.7593    1.0740   -0.1755 H   0  0
   -4.1719   -7.6595   -4.3227 H   0  0
   -2.4980   -7.0607   -3.9598 H   0  0
   -3.8879   -6.0484   -3.5803 H   0  0
   -1.6127   -9.9616    1.5037 H   0  0
   -2.5279   -9.0548    0.2741 H   0  0
   -1.8718   -8.1660    1.6565 H   0  0
    3.6631   -7.1531   -0.0689 H   0  0
    3.2757   -5.7255   -1.0721 H   0  0
    2.0636   -6.9831   -0.8968 H   0  0
   -0.1385    5.6022   -2.9211 H   0  0
    1.1829    3.7709   -4.0509 H   0  0
    0.3275    1.5359   -4.1112 H   0  0
   -3.1420    2.7623   -1.9712 H   0  0
   -2.2471    5.1019   -1.9107 H   0  0
  1  2  1  0  0  0
  2  3  2  0  0  0
  3  4  1  0  0  0
  4  5  2  0  0  0
  5  6  1  0  0  0
  1  6  2  0  0  0
  7  8  1  0  0  0
  6  7  1  0  0  0
  8  9  2  0  0  0
  4 10  1  0  0  0
 10 11  1  0  0  0
  3 12  1  0  0  0
  1 13  1  0  0  0
 15 14  1  0  0  0
 15 16  1  0  0  0
 16 17  1  0  0  0
 17 18  1  0  0  0
 18 19  1  0  0  0
 14 19  1  0  0  0
 18 12  1  0  0  0
 20 21  1  0  0  0
 14 20  1  0  0  0
 21 22  1  0  0  0
 22 23  1  0  0  0
 22 24  2  0  0  0
 15 25  1  0  0  0
 16 26  1  0  0  0
 17 27  1  0  0  0
 27 28  1  0  0  0
 28 30  1  0  0  0
 26 31  1  0  0  0
 31 33  1  0  0  0
 25 34  1  0  0  0
 34 35  2  0  0  0
 34 36  1  0  0  0
 31 32  2  0  0  0
 28 29  2  0  0  0
 13 37  1  0  0  0
 37 38  2  0  0  0
 37 39  2  0  0  0
 37 40  1  0  0  0
 41 42  1  0  0  0
 42 43  2  0  0  0
 44 45  1  0  0  0
 41 45  2  0  0  0
 43 40  1  0  0  0
 40 44  2  0  0  0
  2 46  1  0  0  0
  5 47  1  0  0  0
  7 48  1  0  0  0
  7 49  1  0  0  0
  8 50  1  0  0  0
  9 51  1  0  0  0
  9 52  1  0  0  0
 11 53  1  0  0  0
 11 54  1  0  0  0
 11 55  1  0  0  0
 13 56  1  0  0  0
 14 57  1  0  0  0
 15 58  1  0  0  0
 16 59  1  0  0  0
 17 60  1  0  0  0
 18 61  1  0  0  0
 20 62  1  0  0  0
 20 63  1  0  0  0
 23 64  1  0  0  0
 23 65  1  0  0  0
 23 66  1  0  0  0
 30 67  1  0  0  0
 30 68  1  0  0  0
 30 69  1  0  0  0
 33 70  1  0  0  0
 33 71  1  0  0  0
 33 72  1  0  0  0
 36 73  1  0  0  0
 36 74  1  0  0  0
 36 75  1  0  0  0
 41 76  1  0  0  0
 42 77  1  0  0  0
 43 78  1  0  0  0
 44 79  1  0  0  0
 45 80  1  0  0  0
M  END
> <Clean Energy>
1008.02

$$$$
TMMH2018_13'
  DSViewer          3D                             0

 60 62  0  0  0  0  0  0  0  0999 V2000
    1.4209   -2.2681    1.9211 C   0  0
    1.6466   -2.5018    3.3516 C   0  0
    2.6112   -1.8382    4.0085 C   0  0
    3.4461   -0.8784    3.2966 C   0  0
    3.2588   -0.6873    1.9809 C   0  0
    2.2184   -1.4069    1.2707 C   0  0
    2.0621   -1.1094   -0.1940 C   0  0
    1.0034   -0.0689   -0.3601 C   0  0
    0.8451    0.5271   -1.5380 C   0  0
    4.4419   -0.1965    4.0810 O   0  0
    5.2696    0.7575    3.3893 C   0  0
    2.9039   -2.0076    5.4109 O   0  0
    0.3514   -2.9508    1.2458 N   0  0
    0.2394   -1.5879    6.9622 C   0  0  2  0  0  0
    0.8730   -1.6509    8.4024 C   0  0  2  0  0  0
    2.4524   -1.8012    8.4097 C   0  0  1  0  0  0
    2.7492   -3.1162    7.6038 C   0  0  2  0  0  0
    2.1822   -3.0241    6.1470 C   0  0  1  0  0  0
    0.6939   -2.8029    6.2281 O   0  0
    0.5233   -0.2762    6.1771 C   0  0
    0.0234    0.8258    6.9307 O   0  0
    0.3399   -2.8157    9.0299 O   0  0
    3.1881   -0.6645    7.8743 O   0  0
    2.1102   -4.2180    8.2450 O   0  0
   -0.9648   -3.6615    2.1011 S   0  0
   -1.0845   -3.1692    3.5314 O   0  0
   -0.8241   -5.1712    2.1254 O   0  0
   -2.4667   -3.2294    1.2649 C   0  0
   -3.6589   -2.1650   -0.5553 C   0  0
   -2.4218   -2.5330    0.1292 C   0  0
   -3.7581   -3.6219    1.8291 C   0  0
   -4.8863   -3.2846    1.2069 C   0  0
   -4.8346   -2.5222   -0.0425 C   0  0
    1.0384   -3.1984    3.8467 H   0  0
    3.8467   -0.0060    1.4292 H   0  0
    1.7199   -2.0006   -0.7357 H   0  0
    2.9915   -0.7284   -0.6390 H   0  0
    0.3887    0.2006    0.4614 H   0  0
    1.4687    0.2594   -2.3540 H   0  0
    0.0989    1.2703   -1.6611 H   0  0
    5.9805    1.2047    4.0980 H   0  0
    4.6381    1.5492    2.9578 H   0  0
    5.8251    0.2510    2.5859 H   0  0
    0.2950   -2.9322    0.2645 H   0  0
   -0.8532   -1.6145    7.0722 H   0  0
    0.5629   -0.7704    8.9811 H   0  0
    2.7929   -1.9190    9.4475 H   0  0
    3.8312   -3.3058    7.5812 H   0  0
    2.3745   -3.9821    5.6449 H   0  0
    0.0053   -0.3225    5.2083 H   0  0
    1.5746   -0.1391    6.0009 H   0  0
   -0.9484    0.7065    7.0793 H   0  0
   -0.6454   -2.7534    9.0549 H   0  0
    3.0321   -0.5072    6.9559 H   0  0
    2.4565   -4.3050    9.1680 H   0  0
   -3.6202   -1.6120   -1.4595 H   0  0
   -1.4884   -2.2417   -0.2782 H   0  0
   -3.7953   -4.1725    2.7345 H   0  0
   -5.8229   -3.5672    1.6162 H   0  0
   -5.7326   -2.2536   -0.5387 H   0  0
  1  2  1  0  0  0
  2  3  2  0  0  0
  3  4  1  0  0  0
  4  5  2  0  0  0
  5  6  1  0  0  0
  1  6  2  0  0  0
  7  8  1  0  0  0
  6  7  1  0  0  0
  8  9  2  0  0  0
  4 10  1  0  0  0
 10 11  1  0  0  0
  3 12  1  0  0  0
  1 13  1  0  0  0
 15 14  1  0  0  0
 15 16  1  0  0  0
 16 17  1  0  0  0
 17 18  1  0  0  0
 18 19  1  0  0  0
 14 19  1  0  0  0
 18 12  1  0  0  0
 20 21  1  0  0  0
 14 20  1  0  0  0
 15 22  1  0  0  0
 16 23  1  0  0  0
 17 24  1  0  0  0
 13 25  1  0  0  0
 25 28  1  0  0  0
 25 26  2  0  0  0
 25 27  2  0  0  0
 29 30  1  0  0  0
 31 32  2  0  0  0
 32 33  1  0  0  0
 29 33  2  0  0  0
 30 28  2  0  0  0
 28 31  1  0  0  0
  2 34  1  0  0  0
  5 35  1  0  0  0
  7 36  1  0  0  0
  7 37  1  0  0  0
  8 38  1  0  0  0
  9 39  1  0  0  0
  9 40  1  0  0  0
 11 41  1  0  0  0
 11 42  1  0  0  0
 11 43  1  0  0  0
 13 44  1  0  0  0
 14 45  1  0  0  0
 15 46  1  0  0  0
 16 47  1  0  0  0
 17 48  1  0  0  0
 18 49  1  0  0  0
 20 50  1  0  0  0
 20 51  1  0  0  0
 21 52  1  0  0  0
 22 53  1  0  0  0
 23 54  1  0  0  0
 24 55  1  0  0  0
 29 56  1  0  0  0
 30 57  1  0  0  0
 31 58  1  0  0  0
 32 59  1  0  0  0
 33 60  1  0  0  0
M  END
> <Clean Energy>
5190.24

$$$$
TMMH2018_14
  DSViewer          3D                             0

 83 85  0  0  0  0  0  0  0  0999 V2000
   -4.4143   -0.9821   -2.0899 C   0  0
   -3.6696   -2.2467   -2.0292 C   0  0
   -4.3097   -3.4179   -1.8845 C   0  0
   -5.7536   -3.4461   -1.7831 C   0  0
   -6.4378   -2.2907   -1.7609 C   0  0
   -5.7460   -1.0144   -1.9093 C   0  0
   -6.5875    0.2363   -1.8824 C   0  0
   -6.1640    1.0237   -0.6600 C   0  0
   -6.7708    0.8423    0.5089 C   0  0
   -6.3451   -4.7496   -1.6464 O   0  0
   -7.7689   -4.8013   -1.4745 C   0  0
   -3.6672   -4.6984   -1.7896 O   0  0
   -3.7207    0.2647   -2.3534 N   0  0
   -0.5946   -3.8067   -0.0291 C   0  0  2  0  0  0
    0.3087   -5.0209   -0.2021 C   0  0  2  0  0  0
   -0.6187   -6.2839   -0.0922 C   0  0  1  0  0  0
   -1.7294   -6.1911   -1.2098 C   0  0  2  0  0  0
   -2.4797   -4.8227   -0.9590 C   0  0  1  0  0  0
   -1.5729   -3.7416   -1.0710 O   0  0
    0.2299   -2.5247   -0.0507 C   0  0
   -0.6690   -1.4346    0.1675 O   0  0
    0.0157   -0.2295    0.2303 C   0  0
   -0.7507    1.0380    0.4577 C   0  0
    1.2438   -0.1991    0.0968 O   0  0
    1.2779   -4.9640    0.9003 O   0  0
    0.1936   -7.4962   -0.2247 O   0  0
   -2.6300   -7.3245   -1.0773 O   0  0
   -3.5068   -7.6937   -2.1690 C   0  0
   -4.2856   -8.6348   -1.9827 O   0  0
   -3.4421   -7.0992   -3.5734 C   0  0
   -0.2780   -8.7839    0.2336 C   0  0
    0.4519   -9.7601    0.0311 O   0  0
   -1.5310   -9.0079    1.0691 C   0  0
    2.4851   -5.7416    0.8869 C   0  0
    3.2107   -5.6759    1.8853 O   0  0
    3.0075   -6.5201   -0.3090 C   0  0
   -2.1472    0.3103   -3.0472 S   0  0
   -1.1772   -0.6332   -2.3702 O   0  0
   -2.2297   -0.1012   -4.5047 O   0  0
   -1.5133    1.9759   -2.9680 C   0  0
   -0.5208    4.5847   -2.8157 C   0  0
    0.2973    3.5265   -3.4083 C   0  0
   -0.1759    2.2805   -3.4815 C   0  0
   -2.2533    2.9473   -2.4328 C   0  0
   -1.7347    4.3084   -2.3537 C   0  0
    0.0077    5.9828   -2.7254 C   0  0
   -2.6287   -2.2243   -2.1190 H   0  0
   -7.4880   -2.2716   -1.6545 H   0  0
   -7.6504   -0.0350   -1.8223 H   0  0
   -6.3358    0.8408   -2.7638 H   0  0
   -5.3626    1.7180   -0.7339 H   0  0
   -7.5627    0.1447    0.5932 H   0  0
   -6.4563    1.3968    1.3595 H   0  0
   -8.0846   -5.8503   -1.3823 H   0  0
   -8.2644   -4.3446   -2.3420 H   0  0
   -8.0473   -4.2558   -0.5596 H   0  0
   -4.2093    1.1043   -2.3312 H   0  0
   -1.1015   -3.8698    0.9441 H   0  0
    0.8147   -4.9568   -1.1739 H   0  0
   -1.0880   -6.2543    0.8996 H   0  0
   -1.2622   -6.2085   -2.2025 H   0  0
   -2.8634   -4.8143    0.0696 H   0  0
    0.7397   -2.4152   -1.0170 H   0  0
    0.9712   -2.5554    0.7590 H   0  0
   -0.1121    1.9179    0.2943 H   0  0
   -1.1317    1.0350    1.4879 H   0  0
   -1.6328    1.0487   -0.2024 H   0  0
   -4.1054   -7.6510   -4.2556 H   0  0
   -2.4012   -7.1240   -3.9287 H   0  0
   -3.7351   -6.0472   -3.5378 H   0  0
   -1.5539  -10.0377    1.4546 H   0  0
   -2.4126   -8.8319    0.4527 H   0  0
   -1.5627   -8.2740    1.8861 H   0  0
    3.7137   -7.2925    0.0262 H   0  0
    3.5526   -5.8137   -0.9492 H   0  0
    2.1990   -6.9408   -0.9046 H   0  0
    1.2649    3.7491   -3.7787 H   0  0
    0.4164    1.5135   -3.9101 H   0  0
   -3.2172    2.7338   -2.0575 H   0  0
   -2.3265    5.0765   -1.9239 H   0  0
   -0.7418    6.6554   -2.2814 H   0  0
    0.2966    6.3208   -3.7300 H   0  0
    0.9270    5.9731   -2.1234 H   0  0
  1  2  1  0  0  0
  2  3  2  0  0  0
  3  4  1  0  0  0
  4  5  2  0  0  0
  5  6  1  0  0  0
  1  6  2  0  0  0
  7  8  1  0  0  0
  6  7  1  0  0  0
  8  9  2  0  0  0
  4 10  1  0  0  0
 10 11  1  0  0  0
  3 12  1  0  0  0
  1 13  1  0  0  0
 15 14  1  0  0  0
 15 16  1  0  0  0
 16 17  1  0  0  0
 17 18  1  0  0  0
 18 19  1  0  0  0
 14 19  1  0  0  0
 18 12  1  0  0  0
 20 21  1  0  0  0
 14 20  1  0  0  0
 21 22  1  0  0  0
 22 23  1  0  0  0
 22 24  2  0  0  0
 15 25  1  0  0  0
 16 26  1  0  0  0
 17 27  1  0  0  0
 27 28  1  0  0  0
 28 30  1  0  0  0
 26 31  1  0  0  0
 31 33  1  0  0  0
 25 34  1  0  0  0
 34 35  2  0  0  0
 34 36  1  0  0  0
 31 32  2  0  0  0
 28 29  2  0  0  0
 13 37  1  0  0  0
 37 38  2  0  0  0
 37 39  2  0  0  0
 37 40  1  0  0  0
 41 42  1  0  0  0
 42 43  2  0  0  0
 44 45  1  0  0  0
 41 45  2  0  0  0
 43 40  1  0  0  0
 40 44  2  0  0  0
 41 46  1  0  0  0
  2 47  1  0  0  0
  5 48  1  0  0  0
  7 49  1  0  0  0
  7 50  1  0  0  0
  8 51  1  0  0  0
  9 52  1  0  0  0
  9 53  1  0  0  0
 11 54  1  0  0  0
 11 55  1  0  0  0
 11 56  1  0  0  0
 13 57  1  0  0  0
 14 58  1  0  0  0
 15 59  1  0  0  0
 16 60  1  0  0  0
 17 61  1  0  0  0
 18 62  1  0  0  0
 20 63  1  0  0  0
 20 64  1  0  0  0
 23 65  1  0  0  0
 23 66  1  0  0  0
 23 67  1  0  0  0
 30 68  1  0  0  0
 30 69  1  0  0  0
 30 70  1  0  0  0
 33 71  1  0  0  0
 33 72  1  0  0  0
 33 73  1  0  0  0
 36 74  1  0  0  0
 36 75  1  0  0  0
 36 76  1  0  0  0
 42 77  1  0  0  0
 43 78  1  0  0  0
 44 79  1  0  0  0
 45 80  1  0  0  0
 46 81  1  0  0  0
 46 82  1  0  0  0
 46 83  1  0  0  0
M  END
> <Clean Energy>
1894.41

$$$$
TMMH2018_14'
  DSViewer          3D                             0

 63 65  0  0  0  0  0  0  0  0999 V2000
    1.3091   -1.9674    1.9279 C   0  0
    1.5148   -2.3161    3.3337 C   0  0
    2.5812   -1.8529    4.0062 C   0  0
    3.5489   -0.9960    3.3300 C   0  0
    3.3671   -0.6858    2.0349 C   0  0
    2.2096   -1.1894    1.3102 C   0  0
    2.0627   -0.7866   -0.1301 C   0  0
    0.9994    0.2625   -0.2349 C   0  0
    0.6523    0.7345   -1.4283 C   0  0
    4.6550   -0.5363    4.1281 O   0  0
    5.6145    0.3167    3.4776 C   0  0
    2.8517   -2.1428    5.3980 O   0  0
    0.1432   -2.4614    1.2527 N   0  0
    0.4199   -1.1530    7.0203 C   0  0  2  0  0  0
    1.0083   -1.4665    8.4451 C   0  0  2  0  0  0
    2.4921   -2.0272    8.4247 C   0  0  1  0  0  0
    2.4402   -3.3204    7.5387 C   0  0  2  0  0  0
    1.9194   -2.9994    6.0971 C   0  0  1  0  0  0
    0.5386   -2.4061    6.2126 O   0  0
    1.0478    0.0857    6.3116 C   0  0
    0.8585    1.2341    7.1355 O   0  0
    0.1829   -2.4843    9.0077 O   0  0
    3.5038   -1.0954    7.9489 O   0  0
    1.5327   -4.2564    8.1190 O   0  0
   -1.1058   -3.2626    2.1153 S   0  0
   -1.3513   -2.5990    3.4580 O   0  0
   -0.7342   -4.7110    2.3684 O   0  0
   -2.6209   -3.1904    1.2024 C   0  0
   -3.9640   -2.3883   -0.6447 C   0  0
   -2.7055   -2.4545    0.0947 C   0  0
   -3.7894   -3.9304    1.6780 C   0  0
   -4.9362   -3.8676    1.0054 C   0  0
   -5.0268   -3.0603   -0.2094 C   0  0
   -6.3155   -2.9870   -0.9631 C   0  0
    0.8075   -2.9349    3.8007 H   0  0
    4.0457   -0.0693    1.5110 H   0  0
    1.7242   -1.6346   -0.7414 H   0  0
    3.0001   -0.3825   -0.5368 H   0  0
    0.5202    0.6227    0.6405 H   0  0
    1.1305    0.3681   -2.3016 H   0  0
   -0.1025    1.4755   -1.5069 H   0  0
    6.4000    0.5939    4.1949 H   0  0
    5.1132    1.2274    3.1162 H   0  0
    6.0674   -0.2162    2.6285 H   0  0
    0.0218   -2.3149    0.2868 H   0  0
   -0.6409   -0.8955    7.1418 H   0  0
    0.9396   -0.5717    9.0784 H   0  0
    2.7851   -2.2927    9.4496 H   0  0
    3.4363   -3.7811    7.4926 H   0  0
    1.8620   -3.9445    5.5397 H   0  0
    0.5424    0.2394    5.3476 H   0  0
    2.0987   -0.0510    6.1322 H   0  0
   -0.1094    1.3723    7.2877 H   0  0
   -0.7510   -2.1643    9.0467 H   0  0
    3.4016   -0.8518    7.0421 H   0  0
    1.8377   -4.4866    9.0314 H   0  0
   -4.0321   -1.8025   -1.5260 H   0  0
   -1.8622   -1.9130   -0.2490 H   0  0
   -3.7228   -4.5146    2.5606 H   0  0
   -5.7846   -4.4019    1.3505 H   0  0
   -6.1284   -2.7331   -2.0162 H   0  0
   -6.9228   -2.1863   -0.5172 H   0  0
   -6.8712   -3.9288   -0.8527 H   0  0
  1  2  1  0  0  0
  2  3  2  0  0  0
  3  4  1  0  0  0
  4  5  2  0  0  0
  5  6  1  0  0  0
  1  6  2  0  0  0
  7  8  1  0  0  0
  6  7  1  0  0  0
  8  9  2  0  0  0
  4 10  1  0  0  0
 10 11  1  0  0  0
  3 12  1  0  0  0
  1 13  1  0  0  0
 15 14  1  0  0  0
 15 16  1  0  0  0
 16 17  1  0  0  0
 17 18  1  0  0  0
 18 19  1  0  0  0
 14 19  1  0  0  0
 18 12  1  0  0  0
 20 21  1  0  0  0
 14 20  1  0  0  0
 15 22  1  0  0  0
 16 23  1  0  0  0
 17 24  1  0  0  0
 13 25  1  0  0  0
 25 28  1  0  0  0
 25 26  2  0  0  0
 25 27  2  0  0  0
 29 30  1  0  0  0
 31 32  2  0  0  0
 32 33  1  0  0  0
 29 33  2  0  0  0
 30 28  2  0  0  0
 28 31  1  0  0  0
 33 34  1  0  0  0
  2 35  1  0  0  0
  5 36  1  0  0  0
  7 37  1  0  0  0
  7 38  1  0  0  0
  8 39  1  0  0  0
  9 40  1  0  0  0
  9 41  1  0  0  0
 11 42  1  0  0  0
 11 43  1  0  0  0
 11 44  1  0  0  0
 13 45  1  0  0  0
 14 46  1  0  0  0
 15 47  1  0  0  0
 16 48  1  0  0  0
 17 49  1  0  0  0
 18 50  1  0  0  0
 20 51  1  0  0  0
 20 52  1  0  0  0
 21 53  1  0  0  0
 22 54  1  0  0  0
 23 55  1  0  0  0
 24 56  1  0  0  0
 29 57  1  0  0  0
 30 58  1  0  0  0
 31 59  1  0  0  0
 32 60  1  0  0  0
 34 61  1  0  0  0
 34 62  1  0  0  0
 34 63  1  0  0  0
M  END
> <Clean Energy>
13974.9

$$$$
TMMH2018_15
  DSViewer          3D                             0

 82 84  0  0  0  0  0  0  0  0999 V2000
   -4.4519   -0.9811   -2.0952 C   0  0
   -3.7053   -2.2412   -2.0277 C   0  0
   -4.3404   -3.4143   -1.8860 C   0  0
   -5.7865   -3.4480   -1.7946 C   0  0
   -6.4748   -2.2940   -1.7817 C   0  0
   -5.7840   -1.0158   -1.9277 C   0  0
   -6.6245    0.2336   -1.9125 C   0  0
   -6.2265    1.0098   -0.6763 C   0  0
   -6.7968    0.7540    0.4977 C   0  0
   -6.3761   -4.7525   -1.6572 O   0  0
   -7.8013   -4.8063   -1.4924 C   0  0
   -3.6875   -4.6892   -1.7866 O   0  0
   -3.7536    0.2636   -2.3514 N   0  0
   -0.6060   -3.7714   -0.0289 C   0  0  2  0  0  0
    0.2992   -4.9802   -0.2041 C   0  0  2  0  0  0
   -0.6184   -6.2458   -0.0957 C   0  0  1  0  0  0
   -1.7295   -6.1633   -1.2135 C   0  0  2  0  0  0
   -2.4920   -4.8012   -0.9583 C   0  0  1  0  0  0
   -1.5892   -3.7096   -1.0702 O   0  0
    0.2315   -2.4957   -0.0476 C   0  0
   -0.6415   -1.3887    0.1788 O   0  0
    0.0828   -0.2054    0.2494 C   0  0
   -0.6369    1.0843    0.4952 C   0  0
    1.3112   -0.2150    0.1143 O   0  0
    1.2691   -4.9177    0.8974 O   0  0
    0.1997   -7.4505   -0.2261 O   0  0
   -2.6212   -7.3078   -1.0826 O   0  0
   -3.4924   -7.6833   -2.1766 C   0  0
   -4.2628   -8.6316   -1.9921 O   0  0
   -3.4286   -7.0909   -3.5841 C   0  0
   -0.2671   -8.7430    0.2281 C   0  0
    0.4741   -9.7111    0.0279 O   0  0
   -1.5291   -8.9894    1.0547 C   0  0
    2.4782   -5.6929    0.8891 C   0  0
    3.2031   -5.6181    1.8873 O   0  0
    3.0019   -6.4840   -0.2989 C   0  0
   -2.1713    0.2952   -3.0251 S   0  0
   -1.2159   -0.6349   -2.3106 O   0  0
   -2.2271   -0.1454   -4.4753 O   0  0
   -1.5292    1.9526   -2.9608 C   0  0
   -0.5137    4.5554   -2.8296 C   0  0
    0.2555    3.5005   -3.4942 C   0  0
   -0.2278    2.2611   -3.5569 C   0  0
   -2.2271    2.9164   -2.3609 C   0  0
   -1.6989    4.2738   -2.2915 C   0  0
   -0.0082    5.8543   -2.7565 N   0  3
    1.1714    6.1363   -3.2872 O   0  5
   -0.6263    6.6970   -2.2187 O   0  0
   -2.6662   -2.2150   -2.1110 H   0  0
   -7.5257   -2.2773   -1.6835 H   0  0
   -7.6871   -0.0421   -1.8710 H   0  0
   -6.3606    0.8459   -2.7850 H   0  0
   -5.4744    1.7574   -0.7445 H   0  0
   -7.5406    0.0039    0.5742 H   0  0
   -6.5019    1.3016    1.3595 H   0  0
   -8.1158   -5.8556   -1.3984 H   0  0
   -8.2935   -4.3531   -2.3637 H   0  0
   -8.0853   -4.2583   -0.5805 H   0  0
   -4.2391    1.1092   -2.3316 H   0  0
   -1.1106   -3.8359    0.9454 H   0  0
    0.8049   -4.9136   -1.1759 H   0  0
   -1.0888   -6.2207    0.8957 H   0  0
   -1.2632   -6.1757   -2.2068 H   0  0
   -2.8730   -4.7976    0.0712 H   0  0
    0.7423   -2.3898   -1.0138 H   0  0
    0.9736   -2.5405    0.7605 H   0  0
    0.0389    1.9421    0.3680 H   0  0
   -1.0423    1.0688    1.5161 H   0  0
   -1.5015    1.1468   -0.1820 H   0  0
   -4.2562   -7.4724   -4.1998 H   0  0
   -2.4676   -7.3809   -4.0340 H   0  0
   -3.4358   -6.0003   -3.5450 H   0  0
   -1.9138   -9.9997    0.8511 H   0  0
   -2.2887   -8.2254    0.8867 H   0  0
   -1.2447   -8.9550    2.1147 H   0  0
    3.6034   -7.3315    0.0579 H   0  0
    3.6710   -5.8223   -0.8653 H   0  0
    2.2014   -6.8058   -0.9660 H   0  0
    1.1986    3.7246   -3.9253 H   0  0
    0.3292    1.4974   -4.0374 H   0  0
   -3.1660    2.6969   -1.9251 H   0  0
   -2.2572    5.0351   -1.8095 H   0  0
  1  2  1  0  0  0
  2  3  2  0  0  0
  3  4  1  0  0  0
  4  5  2  0  0  0
  5  6  1  0  0  0
  1  6  2  0  0  0
  7  8  1  0  0  0
  6  7  1  0  0  0
  8  9  2  0  0  0
  4 10  1  0  0  0
 10 11  1  0  0  0
  3 12  1  0  0  0
  1 13  1  0  0  0
 15 14  1  0  0  0
 15 16  1  0  0  0
 16 17  1  0  0  0
 17 18  1  0  0  0
 18 19  1  0  0  0
 14 19  1  0  0  0
 18 12  1  0  0  0
 20 21  1  0  0  0
 14 20  1  0  0  0
 21 22  1  0  0  0
 22 23  1  0  0  0
 22 24  2  0  0  0
 15 25  1  0  0  0
 16 26  1  0  0  0
 17 27  1  0  0  0
 27 28  1  0  0  0
 28 30  1  0  0  0
 26 31  1  0  0  0
 31 33  1  0  0  0
 25 34  1  0  0  0
 34 35  2  0  0  0
 34 36  1  0  0  0
 31 32  2  0  0  0
 28 29  2  0  0  0
 13 37  1  0  0  0
 37 38  2  0  0  0
 37 39  2  0  0  0
 37 40  1  0  0  0
 41 42  1  0  0  0
 42 43  2  0  0  0
 44 45  1  0  0  0
 41 45  2  0  0  0
 43 40  1  0  0  0
 40 44  2  0  0  0
 41 46  1  0  0  0
 46 47  1  0  0  0
 46 48  2  0  0  0
  2 49  1  0  0  0
  5 50  1  0  0  0
  7 51  1  0  0  0
  7 52  1  0  0  0
  8 53  1  0  0  0
  9 54  1  0  0  0
  9 55  1  0  0  0
 11 56  1  0  0  0
 11 57  1  0  0  0
 11 58  1  0  0  0
 13 59  1  0  0  0
 14 60  1  0  0  0
 15 61  1  0  0  0
 16 62  1  0  0  0
 17 63  1  0  0  0
 18 64  1  0  0  0
 20 65  1  0  0  0
 20 66  1  0  0  0
 23 67  1  0  0  0
 23 68  1  0  0  0
 23 69  1  0  0  0
 30 70  1  0  0  0
 30 71  1  0  0  0
 30 72  1  0  0  0
 33 73  1  0  0  0
 33 74  1  0  0  0
 33 75  1  0  0  0
 36 76  1  0  0  0
 36 77  1  0  0  0
 36 78  1  0  0  0
 42 79  1  0  0  0
 43 80  1  0  0  0
 44 81  1  0  0  0
 45 82  1  0  0  0
M  CHG  2  46   1  47  -1
M  END
> <Clean Energy>
2708.36

$$$$
TMMH2018_15'
  DSViewer          3D                             0

 62 64  0  0  0  0  0  0  0  0999 V2000
    1.3025   -2.1811    1.4347 C   0  0
    1.6054   -1.4860    2.6859 C   0  0
    2.5382   -0.5207    2.7272 C   0  0
    3.2653   -0.1626    1.5151 C   0  0
    3.0002   -0.8115    0.3688 C   0  0
    1.9870   -1.8551    0.3277 C   0  0
    1.7303   -2.5193   -0.9964 C   0  0
    0.4384   -2.0077   -1.5558 C   0  0
   -0.0080   -2.4717   -2.7189 C   0  0
    4.2391    0.8891    1.6471 O   0  0
    4.9595    1.2592    0.4574 C   0  0
    2.8862    0.2208    3.9199 O   0  0
    0.2736   -3.1871    1.4170 N   0  0
    0.2933    1.5629    4.9317 C   0  0  2  0  0  0
    0.9534    2.3742    6.1065 C   0  0  2  0  0  0
    2.5303    2.2224    6.1932 C   0  0  1  0  0  0
    2.7960    0.6842    6.3511 C   0  0  2  0  0  0
    2.1997   -0.1200    5.1470 C   0  0  1  0  0  0
    0.7153    0.1377    5.0933 O   0  0
    0.5844    2.1218    3.5061 C   0  0
    0.1197    3.4680    3.4346 O   0  0
    0.4140    1.8450    7.3158 O   0  0
    3.2725    2.7796    5.0721 O   0  0
    2.1560    0.2121    7.5359 O   0  0
   -0.8053   -3.4052    2.7392 S   0  0
   -1.0363   -2.1223    3.5161 O   0  0
   -0.2635   -4.4492    3.6964 O   0  0
   -2.3770   -3.9324    2.1240 C   0  0
   -4.6872   -4.5689    2.4665 C   0  0
   -3.3789   -4.1513    2.9719 C   0  0
   -2.5838   -4.1094    0.6845 C   0  0
   -3.7735   -4.4885    0.2246 C   0  0
   -4.8756   -4.7281    1.1576 C   0  0
   -6.1237   -5.1204    0.6733 N   0  3
   -6.3092   -5.2751   -0.6286 O   0  5
   -7.0122   -5.3084    1.4196 O   0  0
    1.0753   -1.7598    3.5462 H   0  0
    3.5062   -0.5819   -0.5290 H   0  0
    1.6044   -3.6035   -0.8697 H   0  0
    2.5349   -2.3185   -1.7173 H   0  0
   -0.1212   -1.2813   -1.0221 H   0  0
    0.5525   -3.2009   -3.2477 H   0  0
   -0.9236   -2.1136   -3.1169 H   0  0
    5.6646    2.0682    0.6959 H   0  0
    4.2512    1.6075   -0.3094 H   0  0
    5.5165    0.3902    0.0769 H   0  0
    0.1325   -3.7410    0.6160 H   0  0
   -0.7972    1.6359    5.0413 H   0  0
    0.6682    3.4323    6.0307 H   0  0
    2.8890    2.7530    7.0858 H   0  0
    3.8751    0.4988    6.4388 H   0  0
    2.3745   -1.1887    5.3330 H   0  0
    0.0485    1.5098    2.7668 H   0  0
    1.6344    2.0977    3.2779 H   0  0
   -0.8507    3.4903    3.6272 H   0  0
   -0.5700    1.9334    7.3019 H   0  0
    3.1044    2.3456    4.2501 H   0  0
    2.5165    0.6972    8.3190 H   0  0
   -5.4854   -4.7405    3.1429 H   0  0
   -3.2299   -4.0173    4.0133 H   0  0
   -1.7868   -3.9334    0.0075 H   0  0
   -3.9225   -4.6151   -0.8175 H   0  0
  1  2  1  0  0  0
  2  3  2  0  0  0
  3  4  1  0  0  0
  4  5  2  0  0  0
  5  6  1  0  0  0
  1  6  2  0  0  0
  7  8  1  0  0  0
  6  7  1  0  0  0
  8  9  2  0  0  0
  4 10  1  0  0  0
 10 11  1  0  0  0
  3 12  1  0  0  0
  1 13  1  0  0  0
 15 14  1  0  0  0
 15 16  1  0  0  0
 16 17  1  0  0  0
 17 18  1  0  0  0
 18 19  1  0  0  0
 14 19  1  0  0  0
 18 12  1  0  0  0
 20 21  1  0  0  0
 14 20  1  0  0  0
 15 22  1  0  0  0
 16 23  1  0  0  0
 17 24  1  0  0  0
 13 25  1  0  0  0
 25 28  1  0  0  0
 25 26  2  0  0  0
 25 27  2  0  0  0
 29 30  1  0  0  0
 31 32  2  0  0  0
 32 33  1  0  0  0
 29 33  2  0  0  0
 30 28  2  0  0  0
 28 31  1  0  0  0
 33 34  1  0  0  0
 34 35  1  0  0  0
 34 36  2  0  0  0
  2 37  1  0  0  0
  5 38  1  0  0  0
  7 39  1  0  0  0
  7 40  1  0  0  0
  8 41  1  0  0  0
  9 42  1  0  0  0
  9 43  1  0  0  0
 11 44  1  0  0  0
 11 45  1  0  0  0
 11 46  1  0  0  0
 13 47  1  0  0  0
 14 48  1  0  0  0
 15 49  1  0  0  0
 16 50  1  0  0  0
 17 51  1  0  0  0
 18 52  1  0  0  0
 20 53  1  0  0  0
 20 54  1  0  0  0
 21 55  1  0  0  0
 22 56  1  0  0  0
 23 57  1  0  0  0
 24 58  1  0  0  0
 29 59  1  0  0  0
 30 60  1  0  0  0
 31 61  1  0  0  0
 32 62  1  0  0  0
M  CHG  2  34   1  35  -1
M  END
> <Clean Energy>
73980.8

$$$$
TBS2013_1
  SciTegic12132405553D

 43 43  0  0  0  0            999 V2000
   -0.5991   -4.0585   -2.0293 C   0  0  2  0  0  0
   -0.8620   -4.6300   -0.5575 C   0  0  2  0  0  0
    0.3971   -4.3796    0.3662 C   0  0  1  0  0  0
    1.6256   -5.0901   -0.3208 C   0  0  2  0  0  0
    1.8107   -4.4648   -1.7246 C   0  0  1  0  0  0
    0.6125   -4.6893   -2.5503 O   0  0
    2.6643   -4.9423   -2.2057 H   0  0
    1.4219   -6.5304   -0.5189 O   0  0
    0.7118   -2.9841    0.5516 O   0  0
   -1.0436   -6.0821   -0.5923 O   0  0
   -0.4877   -2.5004   -2.0985 C   0  0
   -0.2823   -2.1059   -3.4501 O   0  0
   -0.1908   -0.7212   -3.5156 C   0  0
   -0.2878   -0.0411   -2.4872 O   0  0
    0.0280   -0.0512   -4.8369 C   0  0
   -2.2635   -6.6413   -1.1263 C   0  0
   -2.3562   -7.8726   -1.1696 O   0  0
   -3.4811   -5.8257   -1.5505 C   0  0
   -0.2493   -2.3052    1.3340 C   0  0
   -0.0779   -0.8416    1.5939 C   0  0
   -1.2179   -2.9016    1.8193 O   0  0
    1.4672   -7.4210    0.6218 C   0  0
    1.2575   -8.6217    0.4196 O   0  0
    1.8309   -6.9955    2.0386 C   0  0
   -1.4440   -4.3220   -2.6673 H   0  0
   -1.7514   -4.1656   -0.1140 H   0  0
    0.2223   -4.8133    1.3537 H   0  0
    2.5378   -4.9307    0.2694 H   0  0
    2.1592   -2.5948   -1.5521 Br  0  0
    0.3472   -2.1379   -1.4950 H   0  0
   -1.4204   -2.0560   -1.7250 H   0  0
   -0.0991    1.0375   -4.7489 H   0  0
   -0.6573   -0.4818   -5.5813 H   0  0
    1.0477   -0.2828   -5.1770 H   0  0
   -4.3564   -6.4784   -1.6767 H   0  0
   -3.2543   -5.3316   -2.5051 H   0  0
   -3.6736   -5.0296   -0.8163 H   0  0
   -0.9054   -0.4515    2.2035 H   0  0
   -0.0166   -0.3167    0.6285 H   0  0
    0.8872   -0.6826    2.0958 H   0  0
    2.0182   -7.8761    2.6691 H   0  0
    0.9937   -6.4181    2.4549 H   0  0
    2.7015   -6.3238    2.0156 H   0  0
  1  2  1  0
  2  3  1  0
  3  4  1  0
  4  5  1  0
  5  6  1  0
  1  6  1  0
  5  7  1  0
 11 12  1  0
  4  8  1  0
  3  9  1  0
  2 10  1  0
 12 13  1  0
 13 15  1  0
 10 16  1  0
 16 18  1  0
  9 19  1  0
 19 20  1  0
  8 22  1  0
 22 24  1  0
  1 11  1  0
 16 17  2  0
 19 21  2  0
 22 23  2  0
 13 14  2  0
  1 25  1  0
  2 26  1  0
  3 27  1  0
  4 28  1  0
  5 29  1  0
 11 30  1  0
 11 31  1  0
 15 32  1  0
 15 33  1  0
 15 34  1  0
 18 35  1  0
 18 36  1  0
 18 37  1  0
 20 38  1  0
 20 39  1  0
 20 40  1  0
 24 41  1  0
 24 42  1  0
 24 43  1  0
M  END
> <Name>
TBS2013_1

> <Clean Energy>
58.7863006591797

$$$$
TBS2013_2
  SciTegic12132405553D

 43 43  0  0  0  0            999 V2000
    0.1088   -2.0876   -3.5782 O   0  0
   -0.0707   -1.5425   -2.2491 C   0  0
   -0.2476   -2.7580   -1.2848 C   0  0  1  0  0  0
    0.9141   -3.6369   -1.3423 O   0  0
    2.1383   -3.0600   -0.7796 C   0  0  2  0  0  0
    2.9478   -3.7818   -0.8880 H   0  0
    1.9393   -2.7649    0.7244 C   0  0  2  0  0  0
    1.6124   -4.0429    1.3639 O   0  0
    0.7659   -1.7071    0.8607 C   0  0  1  0  0  0
    1.0909   -0.4578    0.2232 O   0  0
   -0.5047   -2.3790    0.2131 C   0  0  1  0  0  0
   -1.6904   -1.5140    0.2380 O   0  0
    0.2230   -1.1438   -4.6361 C   0  0
    0.3823   -1.5696   -5.7855 O   0  0
    0.1382    0.3551   -4.4285 C   0  0
   -2.3488   -1.2060    1.4864 C   0  0
   -3.3201   -0.4431    1.4447 O   0  0
   -1.9897   -1.8139    2.8354 C   0  0
    2.0983    0.2434    0.9213 C   0  0
    2.5569    1.5733    0.4187 C   0  0
    2.5701   -0.1963    1.9771 O   0  0
    1.6123   -4.1411    2.8027 C   0  0
    1.2978   -5.2263    3.3030 O   0  0
    2.0604   -3.0323    3.7427 C   0  0
    0.7985   -0.9347   -1.9721 H   0  0
   -0.9802   -0.9258   -2.2089 H   0  0
   -1.1291   -3.3015   -1.6492 H   0  0
    2.6090   -1.4506   -1.6942 Br  0  0
    2.8744   -2.3700    1.1412 H   0  0
    0.5681   -1.4938    1.9062 H   0  0
   -0.7066   -3.3131    0.7556 H   0  0
    0.2327    0.8808   -5.3901 H   0  0
    0.9311    0.6711   -3.7349 H   0  0
   -0.8214    0.5995   -3.9470 H   0  0
   -2.7832   -1.6151    3.5696 H   0  0
   -1.0504   -1.3598    3.1825 H   0  0
   -1.8011   -2.8911    2.7232 H   0  0
    3.3020    2.0117    1.1001 H   0  0
    1.6833    2.2327    0.3137 H   0  0
    2.9752    1.4461   -0.5886 H   0  0
    2.1642   -3.4154    4.7677 H   0  0
    1.3114   -2.2289    3.7209 H   0  0
    3.0038   -2.5975    3.3792 H   0  0
  1  2  1  0
  3  2  1  0
  3  4  1  0
  4  5  1  0
  5  6  1  0
  5  7  1  0
  7  8  1  0
  7  9  1  0
  9 10  1  0
  9 11  1  0
  3 11  1  0
  1 13  1  0
 13 15  1  0
 12 16  1  0
 16 18  1  0
 10 19  1  0
 19 20  1  0
  8 22  1  0
 22 24  1  0
 13 14  2  0
 16 17  2  0
 19 21  2  0
 22 23  2  0
 11 12  1  0
  2 25  1  0
  2 26  1  0
  3 27  1  0
  5 28  1  0
  7 29  1  0
  9 30  1  0
 11 31  1  0
 15 32  1  0
 15 33  1  0
 15 34  1  0
 18 35  1  0
 18 36  1  0
 18 37  1  0
 20 38  1  0
 20 39  1  0
 20 40  1  0
 24 41  1  0
 24 42  1  0
 24 43  1  0
M  END
> <Name>
TBS2013_2

> <Clean Energy>
59.6671

$$$$
TBS2013_3
  DSViewer          3D                             0

 79 80  0  0  0  0  0  0  0  0999 V2000
    0.6966    1.0919   -5.4111 O   0  0
    0.4458    2.5083   -5.3064 C   0  0
   -0.5394    2.7551   -4.1135 C   0  0  1  0  0  0
    0.0216    2.2543   -2.8558 O   0  0
    1.2037    2.9964   -2.3871 C   0  0  2  0  0  0
    1.5680    2.5387   -1.4674 H   0  0
    0.8389    4.4764   -2.0912 C   0  0  2  0  0  0
   -0.1783    4.4687   -1.0322 O   0  0
    0.3147    5.1215   -3.4512 C   0  0  1  0  0  0
    1.3339    5.1113   -4.4703 O   0  0
   -0.9247    4.2841   -3.8987 C   0  0  2  0  0  0
   -1.9059    4.4301   -2.8384 O   0  0
    1.5837    0.7094   -6.4630 C   0  0
    1.8396   -0.4911   -6.6066 O   0  0
    2.2333    1.7055   -7.4145 C   0  0
    2.4197    5.9607   -4.1993 C   0  0
    3.5530    6.0206   -5.1734 C   0  0
    2.4421    6.6777   -3.1916 O   0  0
   -0.5368    5.7127   -0.3830 C   0  0
   -1.4182    5.6751    0.4816 O   0  0
    0.1463    7.0496   -0.6370 C   0  0
   -4.4592    4.4456   -7.0091 O   0  0
   -5.4222    4.6849   -5.9854 C   0  0
   -4.9721    3.9855   -4.7032 C   0  0  1  0  0  0
   -3.6988    4.5082   -4.3219 O   0  0
   -3.1915    3.8679   -3.1468 C   0  0  2  0  0  0
   -4.1108    4.1028   -1.9439 C   0  0  2  0  0  0
   -3.4808    3.4402   -0.7974 O   0  0
   -5.5093    3.4913   -2.3126 C   0  0  1  0  0  0
   -6.4276    3.6010   -1.2212 O   0  0
   -6.0088    4.2454   -3.6068 C   0  0  1  0  0  0
   -6.0799    5.6997   -3.4375 O   0  0
   -3.9102    3.7500    0.5476 C   0  0
   -3.3760    3.1304    1.4735 O   0  0
   -4.8847    4.8661    0.9167 C   0  0
   -7.5913    2.8240   -1.4192 C   0  0
   -8.6593    2.8260   -0.3700 C   0  0
   -7.7292    2.1233   -2.4290 O   0  0
   -7.0937    6.2089   -2.6115 C   0  0
   -7.1703    7.6843   -2.3865 C   0  0
   -7.9445    5.4798   -2.1032 O   0  0
   -4.8516    5.0833   -8.1794 C   0  0
   -3.9958    4.9824   -9.4046 C   0  0
   -5.9017    5.7353   -8.2121 O   0  0
    1.3909    3.0302   -5.1408 H   0  0
   -0.0202    2.8769   -6.2319 H   0  0
   -1.4442    2.1871   -4.3584 H   0  0
    2.5856    2.9335   -3.7041 Br  0  0
    1.7309    5.0007   -1.7266 H   0  0
    0.0075    6.1590   -3.2954 H   0  0
   -1.3408    4.6976   -4.8270 H   0  0
    2.8797    1.1845   -8.1350 H   0  0
    2.8148    2.4388   -6.8325 H   0  0
    1.4475    2.2705   -7.9396 H   0  0
    4.4983    6.1949   -4.6401 H   0  0
    3.3853    6.8806   -5.8378 H   0  0
    3.5819    5.1053   -5.7839 H   0  0
   -0.1394    7.7805    0.1324 H   0  0
   -0.1653    7.4173   -1.6246 H   0  0
    1.2371    6.9120   -0.6780 H   0  0
   -5.5034    5.7657   -5.8034 H   0  0
   -6.3994    4.2898   -6.2954 H   0  0
   -4.8870    2.9050   -4.8837 H   0  0
   -3.1125    2.7901   -3.3234 H   0  0
   -4.1872    5.1822   -1.7577 H   0  0
   -5.3829    2.4224   -2.5299 H   0  0
   -6.9792    3.8521   -3.9361 H   0  0
   -4.7252    5.1780    1.9582 H   0  0
   -5.9060    4.4731    0.8277 H   0  0
   -4.7930    5.7110    0.2195 H   0  0
   -9.4728    2.1361   -0.6362 H   0  0
   -9.0395    3.8523   -0.2600 H   0  0
   -8.2093    2.5564    0.5964 H   0  0
   -8.2053    8.0225   -2.5378 H   0  0
   -6.4683    8.2158   -3.0452 H   0  0
   -6.9234    7.8860   -1.3340 H   0  0
   -4.3973    5.6066  -10.2160 H   0  0
   -3.9527    3.9285   -9.7154 H   0  0
   -2.9668    5.2735   -9.1479 H   0  0
  1  2  1  0  0  0
  3  2  1  0  0  0
  3  4  1  0  0  0
  4  5  1  0  0  0
  5  6  1  0  0  0
  5  7  1  0  0  0
  7  8  1  0  0  0
  7  9  1  0  0  0
  9 10  1  0  0  0
  9 11  1  0  0  0
  3 11  1  0  0  0
  1 13  1  0  0  0
 13 15  1  0  0  0
 10 16  1  0  0  0
 16 17  1  0  0  0
  8 19  1  0  0  0
 19 21  1  0  0  0
 13 14  2  0  0  0
 16 18  2  0  0  0
 19 20  2  0  0  0
 11 12  1  0  0  0
 22 23  1  0  0  0
 24 23  1  0  0  0
 24 25  1  0  0  0
 25 26  1  0  0  0
 26 27  1  0  0  0
 27 28  1  0  0  0
 27 29  1  0  0  0
 29 30  1  0  0  0
 29 31  1  0  0  0
 24 31  1  0  0  0
 31 32  1  0  0  0
 28 33  1  0  0  0
 33 35  1  0  0  0
 30 36  1  0  0  0
 36 37  1  0  0  0
 32 39  1  0  0  0
 39 40  1  0  0  0
 22 42  1  0  0  0
 42 43  1  0  0  0
 42 44  2  0  0  0
 39 41  2  0  0  0
 36 38  2  0  0  0
 33 34  2  0  0  0
 26 12  1  0  0  0
  2 45  1  0  0  0
  2 46  1  0  0  0
  3 47  1  0  0  0
  5 48  1  0  0  0
  7 49  1  0  0  0
  9 50  1  0  0  0
 11 51  1  0  0  0
 15 52  1  0  0  0
 15 53  1  0  0  0
 15 54  1  0  0  0
 17 55  1  0  0  0
 17 56  1  0  0  0
 17 57  1  0  0  0
 21 58  1  0  0  0
 21 59  1  0  0  0
 21 60  1  0  0  0
 23 61  1  0  0  0
 23 62  1  0  0  0
 24 63  1  0  0  0
 26 64  1  0  0  0
 27 65  1  0  0  0
 29 66  1  0  0  0
 31 67  1  0  0  0
 35 68  1  0  0  0
 35 69  1  0  0  0
 35 70  1  0  0  0
 37 71  1  0  0  0
 37 72  1  0  0  0
 37 73  1  0  0  0
 40 74  1  0  0  0
 40 75  1  0  0  0
 40 76  1  0  0  0
 43 77  1  0  0  0
 43 78  1  0  0  0
 43 79  1  0  0  0
M  END
> <Clean Energy>
-0.173222

$$$$
TBS2013_4
  SciTegic12132405553D

 65 66  0  0  0  0            999 V2000
    2.9269   -0.1291   -3.8687 O   0  0
    1.7438    0.0120   -3.0862 C   0  0
    1.6613   -1.1712   -2.1150 C   0  0  1  0  0  0
    2.8342   -1.1351   -1.3348 O   0  0
    2.9114   -2.1746   -0.3638 C   0  0  1  0  0  0
    4.1588   -1.9880    0.3215 O   0  0
    1.7677   -2.0540    0.6458 C   0  0  2  0  0  0
    1.9921   -3.1207    1.6373 O   0  0
    0.3966   -2.2128   -0.1367 C   0  0  1  0  0  0
   -0.6850   -2.0829    0.8489 O   0  0
    0.3893   -1.0406   -1.2147 C   0  0  2  0  0  0
   -0.8065   -0.9677   -2.0803 O   0  0
    3.0564    0.9484   -4.7322 C   0  0
    2.2079    1.8477   -4.7399 O   0  0
    4.2411    1.0276   -5.6451 C   0  0
   -2.0185   -2.5786    0.6515 C   0  0
   -2.4508   -3.4826   -0.4688 C   0  0
   -2.8447   -2.3455    1.5401 O   0  0
    1.3452   -3.1008    2.9271 C   0  0
    1.5473   -4.0596    3.6801 O   0  0
    0.5331   -1.9382    3.4755 C   0  0
    5.3597   -2.2057   -0.4445 C   0  0
    7.7983   -2.5989   -1.7868 C   0  0
    7.7853   -1.9978   -0.4388 C   0  0
    6.6175   -1.8151    0.2039 C   0  0
    5.3854   -2.7277   -1.6848 C   0  0
    6.6523   -2.9341   -2.3679 C   0  0
    9.0880   -2.8514   -2.5485 C   0  0
   10.3051   -2.6678   -1.6870 C   0  0
   10.8224   -3.7056   -1.0335 C   0  0
    6.4954   -1.2196    1.5098 O   0  0
    7.7118   -0.7718    2.1373 C   0  0
   -1.0541   -2.0300   -3.0068 C   0  0
   -0.3366   -3.0356   -3.0698 O   0  0
   -2.2347   -1.9168   -3.9253 C   0  0
    1.7948    0.9469   -2.5112 H   0  0
    0.8602    0.0279   -3.7381 H   0  0
    1.6321   -2.1114   -2.6753 H   0  0
    2.8695   -3.1641   -0.8408 H   0  0
    1.8329   -1.0680    1.1238 H   0  0
    0.3765   -3.2006   -0.6152 H   0  0
    0.4559   -0.0933   -0.6623 H   0  0
    4.4444    2.0729   -5.9195 H   0  0
    4.0026    0.4691   -6.5611 H   0  0
    5.1111    0.5438   -5.1760 H   0  0
   -3.0146   -2.8783   -1.1907 H   0  0
   -3.1445   -4.2412   -0.0806 H   0  0
   -1.5923   -3.9407   -0.9757 H   0  0
    0.5598   -1.9463    4.5742 H   0  0
   -0.5099   -2.0734    3.1611 H   0  0
    0.8871   -0.9836    3.0643 H   0  0
    8.6971   -1.7163    0.0020 H   0  0
    4.4993   -3.0194   -2.1829 H   0  0
    6.6637   -3.3643   -3.3367 H   0  0
    9.0371   -3.8689   -2.9622 H   0  0
    9.1081   -2.1376   -3.3829 H   0  0
   10.7498   -1.7093   -1.5971 H   0  0
   10.3739   -4.6629   -1.1199 H   0  0
   11.6805   -3.5737   -0.4236 H   0  0
    7.4759   -0.3342    3.1175 H   0  0
    8.1906   -0.0075    1.5039 H   0  0
    8.3964   -1.6208    2.2701 H   0  0
   -2.3010   -2.7886   -4.5904 H   0  0
   -2.1453   -0.9847   -4.5030 H   0  0
   -3.1457   -1.8180   -3.3165 H   0  0
  1  2  1  0
  3  2  1  0
  3  4  1  0
  5  4  1  0
  5  6  1  0
  5  7  1  0
  7  8  1  0
  7  9  1  0
  9 10  1  0
  9 11  1  0
 11  3  1  0
  1 13  1  0
 13 15  1  0
 10 16  1  0
 16 17  1  0
  8 19  1  0
 19 21  1  0
 13 14  2  0
 16 18  2  0
 19 20  2  0
 11 12  1  0
  6 22  1  0
 23 24  1  0
 24 25  2  0
 26 27  1  0
 23 27  2  0
 25 22  1  0
 22 26  2  0
 23 28  1  0
 28 29  1  0
 29 30  2  0
 25 31  1  0
 31 32  1  0
 12 33  1  0
 33 35  1  0
 33 34  2  0
  2 36  1  0
  2 37  1  0
  3 38  1  0
  5 39  1  0
  7 40  1  0
  9 41  1  0
 11 42  1  0
 15 43  1  0
 15 44  1  0
 15 45  1  0
 17 46  1  0
 17 47  1  0
 17 48  1  0
 21 49  1  0
 21 50  1  0
 21 51  1  0
 24 52  1  0
 26 53  1  0
 27 54  1  0
 28 55  1  0
 28 56  1  0
 29 57  1  0
 30 58  1  0
 30 59  1  0
 32 60  1  0
 32 61  1  0
 32 62  1  0
 35 63  1  0
 35 64  1  0
 35 65  1  0
M  END
> <Name>
TBS2013_4

> <Clean Energy>
94.1818

$$$$
TBS2013_5
  SciTegic12132405553D

 65 66  0  0  0  0            999 V2000
    5.6450   -5.0707   -5.3463 O   0  0
    4.4828   -4.7613   -4.5261 C   0  0
    4.4073   -5.5426   -3.1737 C   0  0  1  0  0  0
    5.4927   -5.1991   -2.3321 O   0  0
    5.4578   -5.8284   -1.0423 C   0  0  1  0  0  0
    6.5192   -5.2134   -0.3446 O   0  0
    4.1850   -5.4925   -0.2760 C   0  0  2  0  0  0
    4.3181   -6.2149    1.0055 O   0  0
    2.9711   -5.9488   -1.1464 C   0  0  1  0  0  0
    1.7354   -5.6973   -0.4766 O   0  0
    3.0901   -5.1366   -2.5035 C   0  0  1  0  0  0
    3.1596   -3.6780   -2.3049 O   0  0
    6.8882   -4.6255   -4.8643 C   0  0
    6.9854   -3.9737   -3.8186 O   0  0
    8.1121   -4.8885   -5.6927 C   0  0
    0.6301   -6.2706   -1.1433 C   0  0
   -0.7433   -6.0610   -0.5889 C   0  0
    0.7773   -6.9392   -2.1734 O   0  0
    3.4788   -5.9418    2.1350 C   0  0
    3.6252   -6.6493    3.1382 O   0  0
    2.5206   -4.7787    2.2321 C   0  0
    7.8272   -5.6417   -0.5629 C   0  0
   10.5230   -6.2811   -0.8707 C   0  0
   10.1201   -4.9037   -0.5462 C   0  0
    8.8196   -4.6165   -0.3890 C   0  0
    8.1777   -6.8830   -0.9258 C   0  0
    9.5970   -7.2138   -1.0625 C   0  0
   11.9841   -6.6495   -1.0013 C   0  0
   12.8440   -5.7332   -0.1693 C   0  0
   12.9781   -5.9383    1.1397 C   0  0
    8.2927   -3.3071   -0.1323 O   0  0
    9.2224   -2.2213   -0.1331 C   0  0
    1.9970   -3.0104   -1.8855 C   0  0
    0.9234   -3.5966   -1.7617 O   0  0
    2.0557   -1.5347   -1.6330 C   0  0
    4.4580   -3.6778   -4.3301 H   0  0
    3.5937   -5.0399   -5.1044 H   0  0
    4.4058   -6.6233   -3.3631 H   0  0
    5.5394   -6.9195   -1.1316 H   0  0
    4.1320   -4.4072   -0.1184 H   0  0
    3.0349   -7.0265   -1.3459 H   0  0
    2.2674   -5.3921   -3.1807 H   0  0
    8.9633   -4.2893   -5.3401 H   0  0
    7.8825   -4.6865   -6.7517 H   0  0
    8.3554   -5.9580   -5.6229 H   0  0
   -1.5053   -6.4820   -1.2597 H   0  0
   -0.9011   -4.9828   -0.4303 H   0  0
   -0.7970   -6.5324    0.4016 H   0  0
    2.1792   -4.6557    3.2701 H   0  0
    1.6609   -4.9698    1.5876 H   0  0
    3.0095   -3.8696    1.8575 H   0  0
   10.8577   -4.1596   -0.4502 H   0  0
    7.4502   -7.6413   -1.0588 H   0  0
    9.8866   -8.2075   -1.2994 H   0  0
   12.0952   -7.7013   -0.6999 H   0  0
   12.2588   -6.5362   -2.0576 H   0  0
   13.3447   -4.9193   -0.6297 H   0  0
   12.4776   -6.7496    1.6036 H   0  0
   13.5833   -5.2857    1.7188 H   0  0
    8.6801   -1.2834    0.0547 H   0  0
    9.7077   -2.1659   -1.1230 H   0  0
    9.9799   -2.3728    0.6420 H   0  0
    1.2930   -1.0358   -2.2482 H   0  0
    3.0595   -1.1388   -1.8467 H   0  0
    1.7806   -1.3467   -0.5845 H   0  0
  1  2  1  0
  3  2  1  0
  3  4  1  0
  5  4  1  0
  5  6  1  0
  7  5  1  0
  7  8  1  0
  9  7  1  0
  9 10  1  0
 11  9  1  0
 11  3  1  0
  1 13  1  0
 13 15  1  0
 10 16  1  0
 16 17  1  0
  8 19  1  0
 19 21  1  0
 13 14  2  0
 16 18  2  0
 19 20  2  0
 11 12  1  0
  6 22  1  0
 23 24  1  0
 24 25  2  0
 26 27  1  0
 23 27  2  0
 25 22  1  0
 22 26  2  0
 23 28  1  0
 28 29  1  0
 29 30  2  0
 25 31  1  0
 31 32  1  0
 12 33  1  0
 33 35  1  0
 33 34  2  0
  2 36  1  0
  2 37  1  0
  3 38  1  0
  5 39  1  0
  7 40  1  0
  9 41  1  0
 11 42  1  0
 15 43  1  0
 15 44  1  0
 15 45  1  0
 17 46  1  0
 17 47  1  0
 17 48  1  0
 21 49  1  0
 21 50  1  0
 21 51  1  0
 24 52  1  0
 26 53  1  0
 27 54  1  0
 28 55  1  0
 28 56  1  0
 29 57  1  0
 30 58  1  0
 30 59  1  0
 32 60  1  0
 32 61  1  0
 32 62  1  0
 35 63  1  0
 35 64  1  0
 35 65  1  0
M  END
> <Name>
TBS2013_5

> <Clean Energy>
99.2119

$$$$
TBS2013_6
  SciTegic12132405553D

101103  0  0  0  0            999 V2000
    7.5784   -3.9479   -1.1225 O   0  0
    6.9240   -3.8212    0.1358 C   0  0
    7.5227   -4.8690    1.0891 C   0  0  1  0  0  0
    8.9040   -4.5826    1.1792 O   0  0
    9.6165   -5.4926    2.0112 C   0  0  1  0  0  0
   10.9979   -5.0966    1.9933 O   0  0
    9.1055   -5.4092    3.4486 C   0  0  2  0  0  0
    9.9436   -6.3174    4.2422 O   0  0
    7.5785   -5.8254    3.4574 C   0  0  1  0  0  0
    7.1137   -5.7440    4.8372 O   0  0
    6.8355   -4.8031    2.4978 C   0  0  2  0  0  0
    5.3509   -5.0217    2.3940 O   0  0
    7.0539   -3.0390   -2.0241 C   0  0
    6.1474   -2.2711   -1.6816 O   0  0
    7.5851   -2.9966   -3.4218 C   0  0
    5.9033   -6.3541    5.1701 C   0  0
    5.3987   -6.2459    6.5733 C   0  0
    5.2920   -7.0549    4.3695 O   0  0
   10.0019   -6.2169    5.6866 C   0  0
   10.6923   -7.0502    6.2829 O   0  0
    9.3810   -5.0961    6.5242 C   0  0
    6.6364   -7.2500   -1.6807 O   0  0
    5.2174   -7.2432   -1.7936 C   0  0
    4.6151   -7.3353   -0.3853 C   0  0  1  0  0  0
    5.1216   -6.2236    0.3279 O   0  0
    4.8009   -6.2291    1.7147 C   0  0  2  0  0  0
    3.2748   -6.1736    1.8994 C   0  0  2  0  0  0
    3.0373   -6.1570    3.3467 O   0  0
    2.6601   -7.4349    1.1921 C   0  0  1  0  0  0
    1.2134   -7.4513    1.3609 O   0  0
    3.0299   -7.3307   -0.3154 C   0  0  1  0  0  0
    2.3840   -6.1014   -0.7981 O   0  0
    1.7602   -5.7414    3.8752 C   0  0
    1.6062   -5.7933    5.1001 O   0  0
    0.6328   -5.1306    3.0480 C   0  0
    0.4551   -8.6293    1.0052 C   0  0
    1.0635   -9.9593    0.5733 C   0  0
   -0.7728   -8.5769    1.1332 O   0  0
    2.2489   -5.9573   -2.1904 C   0  0
    1.6399   -4.7066   -2.7397 C   0  0
    2.5830   -6.8622   -2.9624 O   0  0
    7.2039   -7.1238   -2.9384 C   0  0
    8.6907   -7.0922   -3.0793 C   0  0
    6.4860   -7.0257   -3.9401 O   0  0
   11.6892   -5.1922    0.7324 C   0  0
   13.1863   -5.3273   -1.6403 C   0  0
   13.7809   -4.7357   -0.4292 C   0  0
   13.0638   -4.6749    0.7090 C   0  0
   11.1560   -5.7142   -0.3886 C   0  0
   11.9427   -5.7827   -1.6089 C   0  0
   13.9586   -5.4430   -2.9397 C   0  0
   15.4352   -5.2405   -2.7545 C   0  0
   16.2859   -6.1981   -3.1109 C   0  0
   13.5501   -4.1098    1.9419 O   0  0
   14.8861   -3.5703    1.9292 C   0  0
    7.0823   -2.8140    0.5437 H   0  0
    5.8490   -4.0027    0.0112 H   0  0
    7.3922   -5.8727    0.6633 H   0  0
    9.5080   -6.5226    1.6423 H   0  0
    9.2329   -4.3767    3.7998 H   0  0
    7.4848   -6.8545    3.0843 H   0  0
    6.9924   -3.7973    2.9102 H   0  0
    7.4277   -2.0012   -3.8617 H   0  0
    7.0244   -3.7308   -4.0190 H   0  0
    8.6438   -3.2955   -3.4325 H   0  0
    4.7585   -7.1060    6.8173 H   0  0
    4.7928   -5.3316    6.6462 H   0  0
    6.2439   -6.1440    7.2705 H   0  0
    8.7731   -5.5487    7.3210 H   0  0
    8.7811   -4.4036    5.9246 H   0  0
   10.1923   -4.5538    7.0298 H   0  0
    4.9024   -6.3054   -2.2653 H   0  0
    4.8826   -8.0947   -2.4015 H   0  0
    4.9793   -8.2660    0.0710 H   0  0
    5.1945   -7.1407    2.1766 H   0  0
    2.8984   -5.2474    1.4468 H   0  0
    3.0942   -8.3361    1.6446 H   0  0
    2.6265   -8.1890   -0.8543 H   0  0
   -0.0219   -4.5247    3.6899 H   0  0
    0.0370   -5.9483    2.6232 H   0  0
    1.0371   -4.5452    2.2101 H   0  0
    0.3062  -10.7554    0.5993 H   0  0
    1.9261  -10.2009    1.2112 H   0  0
    1.4449   -9.8514   -0.4516 H   0  0
    1.0768   -4.9314   -3.6567 H   0  0
    2.4581   -4.0229   -3.0108 H   0  0
    1.0170   -4.2169   -1.9773 H   0  0
    8.9974   -6.0461   -3.2309 H   0  0
    8.9922   -7.6509   -3.9766 H   0  0
    9.1748   -7.4782   -2.1692 H   0  0
   14.7634   -4.3664   -0.4727 H   0  0
   10.1702   -6.0961   -0.4101 H   0  0
   11.5196   -6.2084   -2.4822 H   0  0
   13.7241   -6.3964   -3.4347 H   0  0
   13.5787   -4.6329   -3.5773 H   0  0
   15.7995   -4.3425   -2.3217 H   0  0
   15.9210   -7.1024   -3.5277 H   0  0
   17.3285   -6.0586   -2.9732 H   0  0
   15.1276   -3.1717    2.9244 H   0  0
   14.9481   -2.7589    1.1871 H   0  0
   15.6031   -4.3624    1.6687 H   0  0
  1  2  1  0
  3  2  1  0
  3  4  1  0
  5  4  1  0
  5  6  1  0
  5  7  1  0
  7  8  1  0
  7  9  1  0
  9 10  1  0
  9 11  1  0
 11  3  1  0
  1 13  1  0
 13 15  1  0
 10 16  1  0
 16 17  1  0
  8 19  1  0
 19 21  1  0
 13 14  2  0
 16 18  2  0
 19 20  2  0
 11 12  1  0
 22 23  1  0
 24 23  1  0
 24 25  1  0
 25 26  1  0
 26 27  1  0
 27 28  1  0
 27 29  1  0
 29 30  1  0
 29 31  1  0
 24 31  1  0
 31 32  1  0
 28 33  1  0
 33 35  1  0
 30 36  1  0
 36 37  1  0
 32 39  1  0
 39 40  1  0
 22 42  1  0
 42 43  1  0
 42 44  2  0
 39 41  2  0
 36 38  2  0
 33 34  2  0
 26 12  1  0
  6 45  1  0
 46 47  1  0
 47 48  2  0
 49 50  1  0
 46 50  2  0
 48 45  1  0
 45 49  2  0
 46 51  1  0
 51 52  1  0
 52 53  2  0
 48 54  1  0
 54 55  1  0
  2 56  1  0
  2 57  1  0
  3 58  1  0
  5 59  1  0
  7 60  1  0
  9 61  1  0
 11 62  1  0
 15 63  1  0
 15 64  1  0
 15 65  1  0
 17 66  1  0
 17 67  1  0
 17 68  1  0
 21 69  1  0
 21 70  1  0
 21 71  1  0
 23 72  1  0
 23 73  1  0
 24 74  1  0
 26 75  1  0
 27 76  1  0
 29 77  1  0
 31 78  1  0
 35 79  1  0
 35 80  1  0
 35 81  1  0
 37 82  1  0
 37 83  1  0
 37 84  1  0
 40 85  1  0
 40 86  1  0
 40 87  1  0
 43 88  1  0
 43 89  1  0
 43 90  1  0
 47 91  1  0
 49 92  1  0
 50 93  1  0
 51 94  1  0
 51 95  1  0
 52 96  1  0
 53 97  1  0
 53 98  1  0
 55 99  1  0
 55100  1  0
 55101  1  0
M  END
> <Name>
TBS2013_6

> <Clean Energy>
129.826

$$$$
TBS2013_7
  SciTegic12132405553D

 45 46  0  0  0  0            999 V2000
    3.1906   -4.8448   -4.6601 O   0  0
    1.9554   -4.5495   -4.0068 C   0  0
    2.0883   -4.8579   -2.5132 C   0  0  1  0  0  0
    3.1437   -4.0536   -1.9614 O   0  0
    3.3286   -4.3148   -0.5541 C   0  0  1  0  0  0
    4.4041   -3.5016   -0.0580 O   0  0
    2.0473   -3.9683    0.2142 C   0  0  2  0  0  0
    2.2376   -4.2302    1.6021 O   0  0
    0.9149   -4.8368   -0.3265 C   0  0  1  0  0  0
   -0.2988   -4.5413    0.3611 O   0  0
    0.7596   -4.5371   -1.8125 C   0  0  2  0  0  0
   -0.2823   -5.3407   -2.3605 O   0  0
    5.7390   -3.7352   -0.5790 C   0  0
    8.3682   -4.1928   -1.5424 C   0  0
    8.1275   -3.1034   -0.5867 C   0  0
    6.9074   -2.8609   -0.1134 C   0  0
    6.0036   -4.7186   -1.4660 C   0  0
    7.3581   -4.9447   -1.9520 C   0  0
    9.7535   -4.5012   -2.0785 C   0  0
   10.8225   -3.6802   -1.4215 C   0  0
   11.7716   -4.2778   -0.7068 C   0  0
    6.8273   -1.7559    0.8152 O   0  0
    5.5504   -1.4206    1.3628 C   0  0
    3.9120   -4.2919   -4.2667 H   0  0
    1.7151   -3.4847   -4.1376 H   0  0
    1.1526   -5.1632   -4.4384 H   0  0
    2.3301   -5.9207   -2.3746 H   0  0
    3.5607   -5.3783   -0.3984 H   0  0
    1.8027   -2.9070    0.0689 H   0  0
    2.4585   -5.1866    1.7255 H   0  0
    1.1665   -5.8977   -0.1889 H   0  0
   -0.1848   -4.7324    1.3247 H   0  0
    0.5172   -3.4741   -1.9509 H   0  0
   -0.0591   -6.2960   -2.2326 H   0  0
    8.9243   -2.4922   -0.2590 H   0  0
    5.2467   -5.3590   -1.8250 H   0  0
    7.5399   -5.7308   -2.6403 H   0  0
    9.9481   -5.5795   -1.9888 H   0  0
    9.7180   -4.2599   -3.1500 H   0  0
   10.8092   -2.6224   -1.5077 H   0  0
   11.7723   -5.3337   -0.6056 H   0  0
   12.5234   -3.6980   -0.2338 H   0  0
    5.6586   -0.5637    2.0425 H   0  0
    5.1512   -2.2812    1.9191 H   0  0
    4.8597   -1.1564    0.5481 H   0  0
  1  2  1  0
  3  2  1  0
  3  4  1  0
  5  4  1  0
  5  6  1  0
  7  5  1  0
  7  8  1  0
  9  7  1  0
  9 10  1  0
 11  9  1  0
 11  3  1  0
  6 13  1  0
 14 15  1  0
 15 16  2  0
 17 18  1  0
 14 18  2  0
 16 13  1  0
 13 17  2  0
 14 19  1  0
 19 20  1  0
 20 21  2  0
 16 22  1  0
 22 23  1  0
 11 12  1  0
  1 24  1  0
  2 25  1  0
  2 26  1  0
  3 27  1  0
  5 28  1  0
  7 29  1  0
  8 30  1  0
  9 31  1  0
 10 32  1  0
 11 33  1  0
 12 34  1  0
 15 35  1  0
 17 36  1  0
 18 37  1  0
 19 38  1  0
 19 39  1  0
 20 40  1  0
 21 41  1  0
 21 42  1  0
 23 43  1  0
 23 44  1  0
 23 45  1  0
M  END
> <Name>
TBS2013_7

> <Clean Energy>
21.525

$$$$
TBS2013_8
  SciTegic12132405553D

 45 46  0  0  0  0            999 V2000
    3.2806   -4.0087   -4.2956 O   0  0
    2.0431   -3.9618   -3.5774 C   0  0
    2.2028   -4.7051   -2.2447 C   0  0  1  0  0  0
    3.2285   -4.0743   -1.5377 O   0  0
    3.4812   -4.6372   -0.2463 C   0  0  1  0  0  0
    4.5327   -3.8024    0.2136 O   0  0
    2.2360   -4.5395    0.6283 C   0  0  2  0  0  0
    2.5060   -5.0982    1.9121 O   0  0
    1.1134   -5.3130   -0.0814 C   0  0  1  0  0  0
   -0.0833   -5.2538    0.6881 O   0  0
    0.8952   -4.6312   -1.4451 C   0  0  1  0  0  0
    0.5459   -3.2591   -1.2295 O   0  0
    5.7569   -3.9845   -0.5178 C   0  0
    8.1506   -4.3442   -1.9653 C   0  0
    7.7546   -2.9949   -1.5473 C   0  0
    6.6362   -2.7912   -0.8557 C   0  0
    6.1469   -5.2036   -0.9436 C   0  0
    7.3840   -5.3809   -1.6722 C   0  0
    9.4100   -4.5816   -2.7521 C   0  0
   10.4340   -3.5461   -2.4196 C   0  0
   11.2305   -3.7141   -1.3688 C   0  0
    6.3290   -1.4051   -0.5772 O   0  0
    5.0788   -1.1041    0.0582 C   0  0
    3.9941   -3.5733   -3.7561 H   0  0
    1.7854   -2.9092   -3.3738 H   0  0
    1.2479   -4.4256   -4.1703 H   0  0
    2.4730   -5.7536   -2.4206 H   0  0
    3.7623   -5.6907   -0.3215 H   0  0
    1.9323   -3.4905    0.7356 H   0  0
    2.7723   -6.0479    1.8033 H   0  0
    1.4057   -6.3628   -0.2253 H   0  0
    0.0712   -5.6813    1.5651 H   0  0
    0.0941   -5.1311   -2.0023 H   0  0
   -0.2883   -3.2076   -0.7033 H   0  0
    8.3453   -2.1605   -1.8166 H   0  0
    5.5791   -6.0677   -0.7243 H   0  0
    7.6772   -6.3541   -1.9774 H   0  0
    9.7631   -5.6011   -2.5404 H   0  0
    9.1471   -4.4881   -3.8155 H   0  0
   10.5207   -2.6764   -3.0205 H   0  0
   11.1369   -4.5833   -0.7685 H   0  0
   11.9542   -2.9780   -1.1306 H   0  0
    4.9708   -0.0161    0.1601 H   0  0
    5.0469   -1.5724    1.0496 H   0  0
    4.2492   -1.4950   -0.5598 H   0  0
  1  2  1  0
  3  2  1  0
  3  4  1  0
  5  4  1  0
  5  6  1  0
  7  5  1  0
  7  8  1  0
  9  7  1  0
  9 10  1  0
 11  9  1  0
 11  3  1  0
 11 12  1  0
  6 13  1  0
 14 15  1  0
 15 16  2  0
 17 18  1  0
 14 18  2  0
 16 13  1  0
 13 17  2  0
 14 19  1  0
 19 20  1  0
 20 21  2  0
 16 22  1  0
 22 23  1  0
  1 24  1  0
  2 25  1  0
  2 26  1  0
  3 27  1  0
  5 28  1  0
  7 29  1  0
  8 30  1  0
  9 31  1  0
 10 32  1  0
 11 33  1  0
 12 34  1  0
 15 35  1  0
 17 36  1  0
 18 37  1  0
 19 38  1  0
 19 39  1  0
 20 40  1  0
 21 41  1  0
 21 42  1  0
 23 43  1  0
 23 44  1  0
 23 45  1  0
M  END
> <Name>
TBS2013_8

> <Clean Energy>
40.4763

$$$$
TBS2013_9
  SciTegic12132405553D

 66 68  0  0  0  0            999 V2000
    6.1987   -2.7049   -1.2301 O   0  0
    4.8588   -3.1069   -0.9403 C   0  0
    4.8972   -4.3654   -0.0637 C   0  0  1  0  0  0
    5.5996   -4.0455    1.0973 O   0  0
    5.7188   -5.1405    2.0016 C   0  0  1  0  0  0
    6.5500   -4.6267    3.0430 O   0  0
    4.3313   -5.5859    2.4748 C   0  0  2  0  0  0
    4.4565   -6.6674    3.3974 O   0  0
    3.5438   -6.0409    1.2217 C   0  0  1  0  0  0
    2.2348   -6.4669    1.5971 O   0  0
    3.4528   -4.8287    0.2687 C   0  0  2  0  0  0
    2.6694   -5.1347   -0.9622 O   0  0
    7.9415   -4.3414    2.6393 C   0  0
   10.6368   -3.8482    1.8920 C   0  0
   10.1234   -3.2997    3.1567 C   0  0
    8.8632   -3.5104    3.5380 C   0  0
    8.4613   -4.8013    1.4743 C   0  0
    9.8362   -4.5478    1.1086 C   0  0
   12.0625   -3.6322    1.4250 C   0  0
   12.9371   -3.0600    2.4969 C   0  0
   13.5482   -3.8693    3.3583 C   0  0
    8.4857   -2.8660    4.7726 O   0  0
    7.1243   -2.9705    5.1942 C   0  0
    7.2084   -6.2888   -2.7000 O   0  0
    6.3323   -6.3740   -3.8284 C   0  0
    4.9374   -6.8074   -3.3589 C   0  0  1  0  0  0
    4.4420   -5.8387   -2.4364 O   0  0
    3.1493   -6.1809   -1.8901 C   0  0  2  0  0  0
    2.1415   -6.2579   -3.0490 C   0  0  2  0  0  0
    0.8583   -6.6116   -2.5438 O   0  0
    2.6161   -7.3076   -4.0539 C   0  0  1  0  0  0
    1.7019   -7.3820   -5.1466 O   0  0
    3.9978   -6.8923   -4.5604 C   0  0  1  0  0  0
    3.9204   -5.6099   -5.1915 O   0  0
    6.6783   -2.5175   -0.3832 H   0  0
    4.3402   -2.3036   -0.3990 H   0  0
    4.3264   -3.3254   -1.8758 H   0  0
    5.4335   -5.1652   -0.5818 H   0  0
    6.1962   -6.0028    1.5198 H   0  0
    3.8106   -4.7478    2.9577 H   0  0
    4.9239   -7.4203    2.9571 H   0  0
    4.0736   -6.8707    0.7326 H   0  0
    2.3046   -7.2333    2.2190 H   0  0
    2.9385   -4.0162    0.7994 H   0  0
   10.7473   -2.7110    3.7740 H   0  0
    7.8967   -5.3841    0.8033 H   0  0
   10.2117   -4.9377    0.1963 H   0  0
   12.4415   -4.6033    1.0740 H   0  0
   12.0187   -2.9472    0.5668 H   0  0
   13.0736   -2.0110    2.5641 H   0  0
   13.4105   -4.9188    3.2870 H   0  0
   14.1688   -3.4647    4.1163 H   0  0
    6.9882   -2.4111    6.1302 H   0  0
    6.8658   -4.0246    5.3548 H   0  0
    6.4682   -2.5440    4.4167 H   0  0
    6.8583   -5.6236   -2.0573 H   0  0
    6.2646   -5.3897   -4.3138 H   0  0
    6.7233   -7.1102   -4.5434 H   0  0
    5.0019   -7.7871   -2.8665 H   0  0
    3.2083   -7.1529   -1.3825 H   0  0
    2.0850   -5.2796   -3.5473 H   0  0
    0.9165   -7.4917   -2.0973 H   0  0
    2.6828   -8.2859   -3.5604 H   0  0
    0.8091   -7.6387   -4.8114 H   0  0
    4.3734   -7.6327   -5.2786 H   0  0
    3.3052   -5.6560   -5.9627 H   0  0
  1  2  1  0
  3  2  1  0
  3  4  1  0
  5  4  1  0
  5  6  1  0
  7  5  1  0
  7  8  1  0
  9  7  1  0
  9 10  1  0
 11  9  1  0
 11  3  1  0
  6 13  1  0
 14 15  1  0
 15 16  2  0
 17 18  1  0
 14 18  2  0
 16 13  1  0
 13 17  2  0
 14 19  1  0
 19 20  1  0
 20 21  2  0
 16 22  1  0
 22 23  1  0
 11 12  1  0
 24 25  1  0
 26 25  1  0
 26 27  1  0
 27 28  1  0
 28 29  1  0
 29 30  1  0
 29 31  1  0
 31 32  1  0
 31 33  1  0
 26 33  1  0
 33 34  1  0
 28 12  1  0
  1 35  1  0
  2 36  1  0
  2 37  1  0
  3 38  1  0
  5 39  1  0
  7 40  1  0
  8 41  1  0
  9 42  1  0
 10 43  1  0
 11 44  1  0
 15 45  1  0
 17 46  1  0
 18 47  1  0
 19 48  1  0
 19 49  1  0
 20 50  1  0
 21 51  1  0
 21 52  1  0
 23 53  1  0
 23 54  1  0
 23 55  1  0
 24 56  1  0
 25 57  1  0
 25 58  1  0
 26 59  1  0
 28 60  1  0
 29 61  1  0
 30 62  1  0
 31 63  1  0
 32 64  1  0
 33 65  1  0
 34 66  1  0
M  END
> <Name>
TBS2013_9

> <Clean Energy>
22.3125

$$$$
PHOA2014_1
  SciTegic12132405553D

 24 24  0  0  0  0            999 V2000
    3.5129   -1.1887   -2.3048 C   0  0
    3.4574   -1.4186   -3.7412 C   0  0
    2.2981   -1.6776   -4.3445 C   0  0
    1.0240   -1.7321   -3.5144 C   0  0
    1.1156   -1.5159   -2.2032 C   0  0
    2.4026   -1.2326   -1.5756 C   0  0
    2.4715   -0.9950   -0.0950 C   0  0
    1.8028    0.3192    0.2255 C   0  0
    2.1921    1.4469   -0.3694 C   0  0
    2.3258   -1.8867   -5.7246 O   0  0
   -0.2988   -2.0004   -4.0175 O   0  0
   -0.4340   -2.2375   -5.4213 C   0  0
    4.4422   -0.9833   -1.8377 H   0  0
    4.3496   -1.3792   -4.3128 H   0  0
    0.2402   -1.5493   -1.6061 H   0  0
    1.9262   -1.7821    0.4441 H   0  0
    3.5291   -0.9448    0.1995 H   0  0
    1.0322    0.3504    0.9531 H   0  0
    2.9770    1.4315   -1.0831 H   0  0
    1.7171    2.3633   -0.1262 H   0  0
    3.2545   -1.8044   -6.0533 H   0  0
   -1.4906   -2.4264   -5.6590 H   0  0
    0.1666   -3.1138   -5.7059 H   0  0
   -0.0865   -1.3554   -5.9786 H   0  0
  1  2  1  0
  2  3  2  0
  3  4  1  0
  4  5  2  0
  5  6  1  0
  1  6  2  0
  6  7  1  0
  7  8  1  0
  3 10  1  0
  4 11  1  0
 11 12  1  0
  8  9  2  0
  1 13  1  0
  2 14  1  0
  5 15  1  0
  7 16  1  0
  7 17  1  0
  8 18  1  0
  9 19  1  0
  9 20  1  0
 10 21  1  0
 12 22  1  0
 12 23  1  0
 12 24  1  0
M  END
> <Name>
PHOA2014_1

> <Clean Energy>
24.1704998016357

$$$$
PHOA2014_2
  SciTegic12132405553D

 40 41  0  0  0  0            999 V2000
    3.4194   -2.6414   -1.5112 C   0  0
    3.6356   -2.5551   -2.9485 C   0  0
    2.5832   -2.4741   -3.7948 C   0  0
    1.1731   -2.4732   -3.1902 C   0  0
    1.0404   -2.5489   -1.8684 C   0  0
    2.1964   -2.6326   -1.0023 C   0  0
    2.0089   -2.7114    0.4833 C   0  0
    1.5602   -1.3630    0.9988 C   0  0
    2.2408   -0.2530    0.7077 C   0  0
    2.7663   -2.3885   -5.2160 O   0  0
   -0.0679   -2.3946   -3.9254 O   0  0
   -0.0040   -2.3097   -5.3506 C   0  0
    5.0766   -2.5584   -3.4107 C   0  0
    5.4050   -1.2452   -4.0863 N   0  0
    7.6873   -0.1336   -2.6538 O   0  0
    6.3729   -0.1053   -2.0570 C   0  0
    5.2990   -0.0509   -3.1844 C   0  0
    6.7829   -1.2449   -4.6401 C   0  0
    7.8509   -1.2882   -3.5042 C   0  0
    4.2549   -2.7023   -0.8614 H   0  0
    0.0700   -2.5474   -1.4416 H   0  0
    1.2262   -3.4399    0.7365 H   0  0
    2.9756   -2.9631    0.9416 H   0  0
    0.7067   -1.3022    1.6251 H   0  0
    3.1104   -0.3000    0.1008 H   0  0
    1.9125    0.6811    1.0873 H   0  0
    3.6958   -2.3967   -5.5028 H   0  0
   -1.0233   -2.2571   -5.7590 H   0  0
    0.5038   -3.2000   -5.7493 H   0  0
    0.5528   -1.4067   -5.6404 H   0  0
    5.7411   -2.7612   -2.5640 H   0  0
    5.1889   -3.3279   -4.1861 H   0  0
    6.2303   -1.0018   -1.4380 H   0  0
    6.2793    0.7877   -1.4242 H   0  0
    4.2950   -0.0009   -2.7427 H   0  0
    5.4747    0.8554   -3.7803 H   0  0
    6.9319   -0.3180   -5.2120 H   0  0
    6.9061   -2.1087   -5.3077 H   0  0
    7.7395   -2.2017   -2.9060 H   0  0
    8.8547   -1.2718   -3.9503 H   0  0
  1  2  1  0
  2  3  2  0
  3  4  1  0
  4  5  2  0
  5  6  1  0
  1  6  2  0
  6  7  1  0
  7  8  1  0
  3 10  1  0
  4 11  1  0
 11 12  1  0
  8  9  2  0
  2 13  1  0
 13 14  1  0
 15 16  1  0
 16 17  1  0
 18 19  1  0
 15 19  1  0
 17 14  1  0
 14 18  1  0
  1 20  1  0
  5 21  1  0
  7 22  1  0
  7 23  1  0
  8 24  1  0
  9 25  1  0
  9 26  1  0
 10 27  1  0
 12 28  1  0
 12 29  1  0
 12 30  1  0
 13 31  1  0
 13 32  1  0
 16 33  1  0
 16 34  1  0
 17 35  1  0
 17 36  1  0
 18 37  1  0
 18 38  1  0
 19 39  1  0
 19 40  1  0
M  END
> <Name>
PHOA2014_2

> <Clean Energy>
36.8761

$$$$
PHOA2014_3
  SciTegic12132405553D

 29 29  0  0  0  0            999 V2000
    3.2583   -1.2753   -1.8947 C   0  0
    3.2035   -1.4526   -3.3395 C   0  0
    2.1368   -2.0184   -3.9300 C   0  0
    0.9805   -2.4700   -3.0231 C   0  0
    1.0815   -2.2838   -1.7087 C   0  0
    2.2531   -1.6680   -1.1255 C   0  0
    2.3282   -1.4766    0.3573 C   0  0
    1.4194   -0.3361    0.7133 C   0  0
    1.7834    0.9166    0.4482 C   0  0
    2.0473   -2.2112   -5.3711 O   0  0
   -0.2478   -3.0973   -3.4572 O   0  0
   -0.4319   -3.3327   -4.8553 C   0  0
    3.0860   -1.8143   -6.2732 C   0  0
    4.1388   -1.2793   -5.9165 O   0  0
    2.8790   -2.0646   -7.7350 C   0  0
    4.1107   -0.8255   -1.4527 H   0  0
    4.0179   -1.1265   -3.9010 H   0  0
    0.2880   -2.5926   -1.0770 H   0  0
    1.9513   -2.3762    0.8634 H   0  0
    3.3622   -1.2191    0.6266 H   0  0
    0.4916   -0.5283    1.1895 H   0  0
    2.7164    1.1096   -0.0198 H   0  0
    1.1416    1.7210    0.7045 H   0  0
   -1.4074   -3.8120   -5.0195 H   0  0
    0.3666   -3.9927   -5.2252 H   0  0
   -0.3989   -2.3759   -5.3967 H   0  0
    3.7672   -1.7714   -8.3132 H   0  0
    1.9968   -1.4978   -8.0664 H   0  0
    2.6393   -3.1274   -7.8848 H   0  0
  1  2  1  0
  2  3  2  0
  3  4  1  0
  4  5  2  0
  5  6  1  0
  1  6  2  0
  6  7  1  0
  7  8  1  0
  3 10  1  0
  4 11  1  0
 11 12  1  0
  8  9  2  0
 10 13  1  0
 13 14  2  0
 13 15  1  0
  1 16  1  0
  2 17  1  0
  5 18  1  0
  7 19  1  0
  7 20  1  0
  8 21  1  0
  9 22  1  0
  9 23  1  0
 12 24  1  0
 12 25  1  0
 12 26  1  0
 15 27  1  0
 15 28  1  0
 15 29  1  0
M  END
> <Name>
PHOA2014_3

> <Clean Energy>
42.9859

$$$$
PHOA2014_4
  SciTegic12132405553D

 36 37  0  0  0  0            999 V2000
    3.2408   -1.6980   -0.7575 C   0  0
    3.9595   -1.7714   -2.0152 C   0  0
    3.3248   -1.7989   -3.1870 C   0  0
    1.7425   -1.8557   -3.1585 C   0  0
    1.1540   -1.7539   -1.9666 C   0  0
    1.9179   -1.6560   -0.7385 C   0  0
    1.2039   -1.5578    0.5684 C   0  0
    0.6278   -0.1841    0.7037 C   0  0
    0.0521    0.1818    1.8452 C   0  0
    4.2553   -1.6964   -4.2877 O   0  0
    0.7461   -2.1710   -4.2005 O   0  0
    1.0672   -2.6637   -5.5186 C   0  0
    3.8823   -1.0938   -5.4770 C   0  0
    2.8427   -0.4346   -5.5529 O   0  0
    4.8004   -1.1125   -6.6047 C   0  0
    4.4820   -0.4820   -7.7329 C   0  0
    5.4066   -0.5021   -8.8670 C   0  0
    6.5654   -1.1512   -8.7695 C   0  0
    6.9138   -1.8446   -7.5277 C   0  0
    6.0719   -1.8257   -6.4964 C   0  0
    3.7799   -1.6448    0.1539 H   0  0
    5.0187   -1.7284   -2.0051 H   0  0
    0.0975   -1.8185   -1.9079 H   0  0
    0.3492   -2.2483    0.5841 H   0  0
    1.8652   -1.7601    1.4225 H   0  0
    0.6838    0.4983   -0.1069 H   0  0
    0.0017   -0.5017    2.6551 H   0  0
   -0.3558    1.1559    1.9456 H   0  0
    0.1301   -2.9115   -6.0368 H   0  0
    1.6819   -3.5709   -5.4308 H   0  0
    1.5818   -1.9300   -6.1004 H   0  0
    3.5590    0.0343   -7.8099 H   0  0
    5.1539    0.0001   -9.7662 H   0  0
    7.2357   -1.1659   -9.5912 H   0  0
    7.8363   -2.3618   -7.4497 H   0  0
    6.3232   -2.3277   -5.5966 H   0  0
  1  2  1  0
  2  3  2  0
  3  4  1  0
  4  5  2  0
  5  6  1  0
  1  6  2  0
  6  7  1  0
  7  8  1  0
  3 10  1  0
  4 11  1  0
 11 12  1  0
  8  9  2  0
 10 13  1  0
 13 14  2  0
 13 15  1  0
 16 17  1  0
 17 18  2  0
 18 19  1  0
 19 20  2  0
 20 15  1  0
 16 15  2  0
  1 21  1  0
  2 22  1  0
  5 23  1  0
  7 24  1  0
  7 25  1  0
  8 26  1  0
  9 27  1  0
  9 28  1  0
 12 29  1  0
 12 30  1  0
 12 31  1  0
 16 32  1  0
 17 33  1  0
 18 34  1  0
 19 35  1  0
 20 36  1  0
M  END
> <Name>
PHOA2014_4

> <Clean Energy>
55.0052

$$$$
PHOA2014_5
  SciTegic12132405553D

 36 37  0  0  0  0            999 V2000
    1.7284   -2.7687  -10.8004 C   0  0
    2.6546   -2.0956   -9.9167 C   0  0
    2.7105   -2.3802   -8.6162 C   0  0
    1.7618   -3.4459   -8.0587 C   0  0
    0.9141   -4.0499   -8.9196 C   0  0
    0.9072   -3.6956  -10.3299 C   0  0
   -0.0465   -4.3868  -11.2594 C   0  0
    0.4008   -5.8159  -11.4457 C   0  0
    1.6269   -6.0956  -11.8883 C   0  0
    3.7064   -1.6042   -7.8902 O   0  0
    1.7905   -3.7733   -6.6618 O   0  0
    0.8777   -4.7810   -6.1779 C   0  0
    3.9695   -1.7247   -6.4990 C   0  0
    3.3830   -2.5049   -5.7555 O   0  0
    5.0025   -0.8725   -5.9257 C   0  0
    5.7231    0.0716   -6.7795 C   0  0
    6.6684    0.8515   -6.2593 C   0  0
    6.9864    0.7636   -4.8329 C   0  0
    6.3300   -0.0961   -4.0560 C   0  0
    5.2907   -0.9531   -4.6283 C   0  0
    8.2131    1.7749   -4.1577 Cl  0  0
    1.7084   -2.5224  -11.8314 H   0  0
    3.3064   -1.3593  -10.3131 H   0  0
    0.2341   -4.7914   -8.6052 H   0  0
   -1.0553   -4.4104  -10.8243 H   0  0
   -0.0201   -3.8712  -12.2296 H   0  0
   -0.2772   -6.6067  -11.2477 H   0  0
    2.3066   -5.3117  -12.1100 H   0  0
    1.9228   -7.1051  -12.0217 H   0  0
    1.0239   -4.9138   -5.0966 H   0  0
    1.0726   -5.7340   -6.6920 H   0  0
   -0.1584   -4.4638   -6.3692 H   0  0
    5.4924    0.1348   -7.8128 H   0  0
    7.1909    1.5361   -6.8780 H   0  0
    6.5606   -0.1597   -3.0229 H   0  0
    4.7684   -1.6378   -4.0098 H   0  0
  1  2  1  0
  2  3  2  0
  3  4  1  0
  4  5  2  0
  5  6  1  0
  1  6  2  0
  6  7  1  0
  7  8  1  0
  3 10  1  0
  4 11  1  0
 11 12  1  0
  8  9  2  0
 10 13  1  0
 13 14  2  0
 13 15  1  0
 16 17  2  0
 17 18  1  0
 18 19  2  0
 19 20  1  0
 15 16  1  0
 15 20  2  0
 18 21  1  0
  1 22  1  0
  2 23  1  0
  5 24  1  0
  7 25  1  0
  7 26  1  0
  8 27  1  0
  9 28  1  0
  9 29  1  0
 12 30  1  0
 12 31  1  0
 12 32  1  0
 16 33  1  0
 17 34  1  0
 19 35  1  0
 20 36  1  0
M  END
> <Name>
PHOA2014_5

> <Clean Energy>
29.8682

$$$$
PHOA2014_6
  SciTegic12132405553D

 45 46  0  0  0  0            999 V2000
    3.6533   -2.5749   -1.7367 C   0  0
    4.0523   -2.4157   -3.1144 C   0  0
    3.1606   -2.3387   -4.1051 C   0  0
    1.6678   -2.4661   -3.7388 C   0  0
    1.3468   -2.6087   -2.4339 C   0  0
    2.3743   -2.6505   -1.4137 C   0  0
    1.9786   -2.7879    0.0229 C   0  0
    1.3433   -1.4921    0.4648 C   0  0
    2.0113   -0.3410    0.3794 C   0  0
    3.8048   -2.1451   -5.4234 O   0  0
    0.6683   -2.4661   -4.7599 O   0  0
   -0.7165   -2.6218   -4.3733 C   0  0
    3.2449   -1.8537   -6.7318 C   0  0
    4.0472   -1.7969   -7.6700 O   0  0
    1.8317   -1.4979   -7.0481 C   0  0
    5.5175   -2.3092   -3.4331 C   0  0
    5.8408   -0.9207   -3.9430 N   0  0
    7.9422    0.1199   -2.2108 O   0  0
    8.2290   -0.9333   -3.1551 C   0  0
    7.2589   -0.8114   -4.3697 C   0  0
    5.6043    0.1693   -2.9392 C   0  0
    6.5825    0.0378   -1.7322 C   0  0
    4.3917   -2.6111   -0.9768 H   0  0
    0.3486   -2.7051   -2.1119 H   0  0
    1.2296   -3.5829    0.1406 H   0  0
    2.8851   -2.9687    0.6175 H   0  0
    0.3629   -1.5002    0.8689 H   0  0
    3.0004   -0.3239   -0.0067 H   0  0
    1.5534    0.5606    0.6997 H   0  0
   -1.3480   -2.6026   -5.2727 H   0  0
   -1.0089   -1.7995   -3.7043 H   0  0
   -0.8494   -3.5842   -3.8557 H   0  0
    1.7644   -1.0277   -8.0392 H   0  0
    1.4303   -0.8447   -6.2594 H   0  0
    1.2336   -2.4195   -7.0423 H   0  0
    6.1124   -2.5648   -2.5501 H   0  0
    5.7409   -2.9912   -4.2646 H   0  0
    9.2648   -0.8334   -3.5077 H   0  0
    8.1100   -1.9078   -2.6640 H   0  0
    7.4125    0.1749   -4.8303 H   0  0
    7.4770   -1.5958   -5.1075 H   0  0
    4.5656    0.1355   -2.5849 H   0  0
    5.7874    1.1384   -3.4235 H   0  0
    6.3958    0.8558   -1.0235 H   0  0
    6.4299   -0.9231   -1.2213 H   0  0
  1  2  1  0
  2  3  2  0
  3  4  1  0
  4  5  2  0
  5  6  1  0
  1  6  2  0
  6  7  1  0
  7  8  1  0
  3 10  1  0
  4 11  1  0
 11 12  1  0
  8  9  2  0
 10 13  1  0
 13 14  2  0
 13 15  1  0
  2 16  1  0
 16 17  1  0
 18 19  1  0
 19 20  1  0
 21 22  1  0
 18 22  1  0
 20 17  1  0
 17 21  1  0
  1 23  1  0
  5 24  1  0
  7 25  1  0
  7 26  1  0
  8 27  1  0
  9 28  1  0
  9 29  1  0
 12 30  1  0
 12 31  1  0
 12 32  1  0
 15 33  1  0
 15 34  1  0
 15 35  1  0
 16 36  1  0
 16 37  1  0
 19 38  1  0
 19 39  1  0
 20 40  1  0
 20 41  1  0
 21 42  1  0
 21 43  1  0
 22 44  1  0
 22 45  1  0
M  END
> <Name>
PHOA2014_6

> <Clean Energy>
63.9125

$$$$
PHOA2014_7
  SciTegic12132405553D

 52 54  0  0  0  0            999 V2000
    3.6429   -2.6825   -1.6236 C   0  0
    3.4521   -2.2566   -3.0115 C   0  0
    2.1852   -2.1691   -3.5421 C   0  0
    1.0233   -2.5395   -2.5543 C   0  0
    1.2987   -2.9059   -1.3082 C   0  0
    2.6329   -2.9775   -0.8306 C   0  0
    2.8961   -3.3911    0.5860 C   0  0
    2.5330   -2.2490    1.5079 C   0  0
    3.0470   -1.0304    1.3306 C   0  0
    1.7626   -1.7608   -4.9431 O   0  0
   -0.3951   -2.5352   -2.8340 O   0  0
   -0.8492   -2.1668   -4.1213 C   0  0
    2.5561   -1.3959   -6.1072 C   0  0
    3.7781   -1.3875   -6.1357 O   0  0
    1.8760   -1.0258   -7.3545 C   0  0
    2.6047   -0.6926   -8.4193 C   0  0
    1.9476   -0.3220   -9.6732 C   0  0
    0.6192   -0.3179   -9.7523 C   0  0
   -0.1814   -0.6829   -8.5851 C   0  0
    0.4176   -1.0189   -7.4447 C   0  0
    4.7683   -1.9528   -3.6808 C   0  0
    4.8951   -0.4631   -3.9675 N   0  0
    7.3032    0.4441   -2.5876 O   0  0
    7.4053   -0.3931   -3.7579 C   0  0
    6.1687   -0.1465   -4.6745 C   0  0
    4.8590    0.4066   -2.7448 C   0  0
    6.1035    0.1546   -1.8398 C   0  0
    4.6287   -2.7430   -1.2379 H   0  0
    0.5019   -3.1516   -0.6535 H   0  0
    2.2714   -4.2524    0.8607 H   0  0
    3.9698   -3.6010    0.6907 H   0  0
    1.8807   -2.4259    2.3250 H   0  0
    3.7191   -0.8424    0.5304 H   0  0
    2.7848   -0.2462    1.9944 H   0  0
   -1.9464   -2.2208   -4.1517 H   0  0
   -0.4281   -2.8535   -4.8705 H   0  0
   -0.5272   -1.1388   -4.3445 H   0  0
    3.6633   -0.6958   -8.3591 H   0  0
    2.5299   -0.0571  -10.5190 H   0  0
    0.1420   -0.0499  -10.6607 H   0  0
   -1.2401   -0.6799   -8.6465 H   0  0
   -0.1606   -1.2792   -6.6116 H   0  0
    5.5847   -2.2972   -3.0389 H   0  0
    4.8034   -2.4674   -4.6430 H   0  0
    8.3210   -0.1374   -4.3086 H   0  0
    7.4530   -1.4461   -3.4521 H   0  0
    6.1602    0.9159   -4.9559 H   0  0
    6.2416   -0.7628   -5.5813 H   0  0
    3.9389    0.2170   -2.1765 H   0  0
    4.8749    1.4585   -3.0617 H   0  0
    6.0532    0.8139   -0.9627 H   0  0
    6.1232   -0.8913   -1.5034 H   0  0
  1  2  1  0
  2  3  2  0
  3  4  1  0
  4  5  2  0
  5  6  1  0
  1  6  2  0
  6  7  1  0
  7  8  1  0
  3 10  1  0
  4 11  1  0
 11 12  1  0
  8  9  2  0
 10 13  1  0
 13 14  2  0
 13 15  1  0
 16 17  1  0
 17 18  2  0
 18 19  1  0
 19 20  2  0
 20 15  1  0
 16 15  2  0
  2 21  1  0
 21 22  1  0
 23 24  1  0
 24 25  1  0
 26 27  1  0
 23 27  1  0
 25 22  1  0
 22 26  1  0
  1 28  1  0
  5 29  1  0
  7 30  1  0
  7 31  1  0
  8 32  1  0
  9 33  1  0
  9 34  1  0
 12 35  1  0
 12 36  1  0
 12 37  1  0
 16 38  1  0
 17 39  1  0
 18 40  1  0
 19 41  1  0
 20 42  1  0
 21 43  1  0
 21 44  1  0
 24 45  1  0
 24 46  1  0
 25 47  1  0
 25 48  1  0
 26 49  1  0
 26 50  1  0
 27 51  1  0
 27 52  1  0
M  END
> <Name>
PHOA2014_7

> <Clean Energy>
53.6077

$$$$
PHOA2014_8
  SciTegic12132405553D

 52 54  0  0  0  0            999 V2000
    6.6714   -3.1910   -9.2036 C   0  0
    5.5545   -2.7829   -8.3514 C   0  0
    4.6750   -1.8138   -8.7762 C   0  0
    4.9650   -1.2305  -10.2026 C   0  0
    6.0008   -1.6735  -10.9056 C   0  0
    6.8715   -2.6741  -10.3992 C   0  0
    8.0257   -3.1467  -11.2305 C   0  0
    7.5020   -4.0600  -12.3138 C   0  0
    6.7934   -5.1487  -12.0102 C   0  0
    3.4632   -1.2485   -8.0595 O   0  0
    4.2116   -0.2102  -10.8975 O   0  0
    3.0794    0.3654  -10.2733 C   0  0
    2.9627   -1.4841   -6.7150 C   0  0
    3.5281   -2.1757   -5.8794 O   0  0
    1.7200   -0.8331   -6.2876 C   0  0
    5.5309   -3.5631   -7.0631 C   0  0
    4.2844   -4.4305   -6.9871 N   0  0
    5.2100   -7.1822   -6.6860 O   0  0
    5.3417   -6.2452   -5.5967 C   0  0
    4.2114   -5.1763   -5.6996 C   0  0
    4.1795   -5.4532   -8.0804 C   0  0
    5.3114   -6.5180   -7.9633 C   0  0
    0.9637    0.0188   -7.2031 C   0  0
   -0.1623    0.6023   -6.7981 C   0  0
   -0.6463    0.3918   -5.4350 C   0  0
    0.0395   -0.3848   -4.5996 C   0  0
    1.2769   -1.0256   -5.0459 C   0  0
   -2.1069    1.1491   -4.9093 Cl  0  0
    7.3359   -3.9393   -8.8535 H   0  0
    6.1833   -1.2692  -11.8684 H   0  0
    8.5228   -2.2974  -11.7194 H   0  0
    8.7039   -3.7206  -10.5835 H   0  0
    7.7235   -3.8470  -13.3287 H   0  0
    6.5826   -5.3852  -10.9968 H   0  0
    6.4413   -5.7819  -12.7844 H   0  0
    2.6357    1.1169  -10.9412 H   0  0
    3.3828    0.8461   -9.3315 H   0  0
    2.3380   -0.4194  -10.0620 H   0  0
    6.4392   -4.1694   -6.9935 H   0  0
    5.4848   -2.8632   -6.2269 H   0  0
    5.2471   -6.7817   -4.6427 H   0  0
    6.3284   -5.7667   -5.6428 H   0  0
    3.2447   -5.6970   -5.6490 H   0  0
    4.2862   -4.4654   -4.8650 H   0  0
    4.2290   -4.9613   -9.0607 H   0  0
    3.2141   -5.9694   -7.9863 H   0  0
    5.1983   -7.2570   -8.7681 H   0  0
    6.2959   -6.0376   -8.0514 H   0  0
    1.3057    0.1711   -8.1821 H   0  0
   -0.7087    1.2196   -7.4651 H   0  0
   -0.3107   -0.5388   -3.6105 H   0  0
    1.8217   -1.6438   -4.3786 H   0  0
  1  2  1  0
  2  3  2  0
  3  4  1  0
  4  5  2  0
  5  6  1  0
  1  6  2  0
  6  7  1  0
  7  8  1  0
  3 10  1  0
  4 11  1  0
 11 12  1  0
  8  9  2  0
 10 13  1  0
 13 14  2  0
 13 15  1  0
  2 16  1  0
 16 17  1  0
 18 19  1  0
 19 20  1  0
 21 22  1  0
 18 22  1  0
 20 17  1  0
 17 21  1  0
 23 24  2  0
 24 25  1  0
 25 26  2  0
 26 27  1  0
 15 23  1  0
 15 27  2  0
 25 28  1  0
  1 29  1  0
  5 30  1  0
  7 31  1  0
  7 32  1  0
  8 33  1  0
  9 34  1  0
  9 35  1  0
 12 36  1  0
 12 37  1  0
 12 38  1  0
 16 39  1  0
 16 40  1  0
 19 41  1  0
 19 42  1  0
 20 43  1  0
 20 44  1  0
 21 45  1  0
 21 46  1  0
 22 47  1  0
 22 48  1  0
 23 49  1  0
 24 50  1  0
 26 51  1  0
 27 52  1  0
M  END
> <Name>
PHOA2014_8

> <Clean Energy>
53.409

$$$$
LISC2017_2
  SciTegic12132405553D

 26 26  0  0  0  0            999 V2000
    3.8055   -1.5612    2.9974 C   0  0
    3.3766   -1.4822    1.5997 C   0  0
    2.1166   -1.6985    1.2467 C   0  0
    1.1234   -2.0250    2.2376 C   0  0
    1.4484   -2.1130    3.5247 C   0  0
    2.8866   -1.8662    3.9531 C   0  0
    5.2247   -1.2912    3.1987 O   0  0
    5.7842   -1.3334    4.5205 C   0  0
    3.2413   -1.9560    5.3144 O   0  0
    1.7199   -1.6079   -0.1973 C   0  0
    0.8717   -0.3769   -0.3891 C   0  0
    1.3521    0.8316   -0.0982 C   0  0
    0.3953   -2.4416    4.4325 N   0  3
    0.5692   -2.5458    5.5863 O   0  0
   -0.8261   -2.6374    3.9583 O   0  5
    4.0893   -1.2446    0.8518 H   0  0
    0.1237   -2.1959    1.9325 H   0  0
    6.8582   -1.1046    4.4696 H   0  0
    5.6442   -2.3375    4.9469 H   0  0
    5.2817   -0.5897    5.1562 H   0  0
    2.4930   -2.1775    5.8690 H   0  0
    2.6327   -1.5173   -0.8025 H   0  0
    1.1101   -2.4775   -0.4792 H   0  0
   -0.1081   -0.4712   -0.7834 H   0  0
    2.3387    0.9369    0.2781 H   0  0
    0.7475    1.6903   -0.2453 H   0  0
  1  2  1  0
  2  3  2  0
  3  4  1  0
  4  5  2  0
  5  6  1  0
  1  6  2  0
  1  7  1  0
  7  8  1  0
  6  9  1  0
  3 10  1  0
 10 11  1  0
 11 12  2  0
  5 13  1  0
 13 14  2  0
 13 15  1  0
  2 16  1  0
  4 17  1  0
  8 18  1  0
  8 19  1  0
  8 20  1  0
  9 21  1  0
 10 22  1  0
 10 23  1  0
 11 24  1  0
 12 25  1  0
 12 26  1  0
M  CHG  2  13   1  15  -1
M  END
> <Name>
LISC2017_2

> <Clean Energy>
28.2193

$$$$
LISC2017_2'
  SciTegic12132405553D

 28 28  0  0  0  0            999 V2000
    1.6260    2.2162   -3.6670 C   0  0
    2.0736    1.6601   -2.3884 C   0  0
    1.4319    1.9176   -1.2580 C   0  0
    0.2653    2.7590   -1.2510 C   0  0
   -0.1938    3.2961   -2.3783 C   0  0
    0.5252    3.0154   -3.6890 C   0  0
    2.4510    1.8270   -4.8051 O   0  0
    2.1279    2.2993   -6.1220 C   0  0
    0.0474    3.5791   -4.8893 O   0  0
    1.9223    1.3277    0.0209 C   0  0
    1.2346   -0.0299    0.2035 C   0  0
    1.7191   -0.6636    1.5134 C   0  0
   -1.3578    4.1175   -2.2720 N   0  3
   -1.9107    4.3000   -1.0820 O   0  5
   -1.8460    4.6396   -3.2001 O   0  0
    2.9306    1.0361   -2.3662 H   0  0
   -0.2302    2.9495   -0.3344 H   0  0
    2.8582    1.9023   -6.8414 H   0  0
    2.1609    3.3985   -6.1366 H   0  0
    1.1198    1.9571   -6.3981 H   0  0
   -0.7323    4.1171   -4.7507 H   0  0
    3.0062    1.1535   -0.0271 H   0  0
    1.6418    1.9659    0.8704 H   0  0
    0.1454    0.1126    0.2431 H   0  0
    1.4890   -0.6871   -0.6402 H   0  0
    1.2306   -1.6386    1.6521 H   0  0
    1.4655   -0.0019    2.3539 H   0  0
    2.8091   -0.8008    1.4705 H   0  0
  1  2  1  0
  2  3  2  0
  3  4  1  0
  4  5  2  0
  5  6  1  0
  1  6  2  0
  1  7  1  0
  7  8  1  0
  6  9  1  0
  3 10  1  0
 10 11  1  0
 11 12  1  0
  5 13  1  0
 13 14  1  0
 13 15  2  0
  2 16  1  0
  4 17  1  0
  8 18  1  0
  8 19  1  0
  8 20  1  0
  9 21  1  0
 10 22  1  0
 10 23  1  0
 11 24  1  0
 11 25  1  0
 12 26  1  0
 12 27  1  0
 12 28  1  0
M  CHG  2  13   1  14  -1
M  END
> <Name>
LISC2017_2'

> <Clean Energy>
16.1194

$$$$
LISC2017_3
  SciTegic12132405553D

 26 26  0  0  0  0            999 V2000
    3.7971   -1.5385    2.9988 C   0  0
    3.3602   -1.4759    1.5989 C   0  0
    2.0921   -1.6790    1.2603 C   0  0
    1.1057   -1.9730    2.2712 C   0  0
    1.4548   -2.0406    3.5501 C   0  0
    2.8749   -1.8133    3.9582 C   0  0
    5.2174   -1.2894    3.1988 O   0  0
    5.7630   -1.3231    4.5261 C   0  0
    3.1982   -1.8939    5.3234 O   0  0
    1.6807   -1.6078   -0.1799 C   0  0
    0.8733   -0.3532   -0.3826 C   0  0
    1.4209    0.8443   -0.1800 C   0  0
    0.4517   -2.3301    4.4896 N   0  0
    4.0708   -1.2620    0.8419 H   0  0
    0.0962   -2.1357    1.9909 H   0  0
    6.8412   -1.1135    4.4826 H   0  0
    5.6016   -2.3187    4.9648 H   0  0
    5.2676   -0.5622    5.1467 H   0  0
    2.4114   -2.0989    5.8579 H   0  0
    2.5883   -1.5592   -0.7977 H   0  0
    1.0369   -2.4620   -0.4321 H   0  0
   -0.1323   -0.4227   -0.7119 H   0  0
    2.4323    0.9213    0.1322 H   0  0
    0.8456    1.7220   -0.3327 H   0  0
   -0.4814   -2.4750    4.1788 H   0  0
    0.6587   -2.3919    5.4511 H   0  0
  1  2  1  0
  2  3  2  0
  3  4  1  0
  4  5  2  0
  5  6  1  0
  1  6  2  0
  1  7  1  0
  7  8  1  0
  6  9  1  0
  3 10  1  0
 10 11  1  0
 11 12  2  0
  5 13  1  0
  2 14  1  0
  4 15  1  0
  8 16  1  0
  8 17  1  0
  8 18  1  0
  9 19  1  0
 10 20  1  0
 10 21  1  0
 11 22  1  0
 12 23  1  0
 12 24  1  0
 13 25  1  0
 13 26  1  0
M  END
> <Name>
LISC2017_3

> <Clean Energy>
26.1528

$$$$
LISC2017_3'
  SciTegic12132405553D

 28 28  0  0  0  0            999 V2000
    1.6253    2.2035   -3.6681 C   0  0
    2.0832    1.6592   -2.3838 C   0  0
    1.4199    1.8937   -1.2588 C   0  0
    0.2228    2.6959   -1.2701 C   0  0
   -0.2298    3.2095   -2.4075 C   0  0
    0.4976    2.9614   -3.6899 C   0  0
    2.4641    1.8535   -4.8052 O   0  0
    2.1170    2.3279   -6.1147 C   0  0
   -0.0179    3.5247   -4.8697 O   0  0
    1.9147    1.3218    0.0265 C   0  0
    1.2524   -0.0475    0.2143 C   0  0
    1.7412   -0.6629    1.5313 C   0  0
   -1.4011    3.9830   -2.3581 N   0  0
    2.9614    1.0658   -2.3542 H   0  0
   -0.2990    2.8762   -0.3649 H   0  0
    2.8583    1.9669   -6.8418 H   0  0
    2.1084    3.4277   -6.1171 H   0  0
    1.1213    1.9509   -6.3904 H   0  0
   -0.8281    4.0329   -4.6898 H   0  0
    3.0023    1.1699   -0.0136 H   0  0
    1.6156    1.9592    0.8703 H   0  0
    0.1604    0.0743    0.2468 H   0  0
    1.5243   -0.7051   -0.6235 H   0  0
    1.2707   -1.6461    1.6739 H   0  0
    1.4699   -0.0005    2.3658 H   0  0
    2.8338   -0.7793    1.4957 H   0  0
   -1.8561    4.1252   -1.4858 H   0  0
   -1.7782    4.3865   -3.1744 H   0  0
  1  2  1  0
  2  3  2  0
  3  4  1  0
  4  5  2  0
  5  6  1  0
  1  6  2  0
  1  7  1  0
  7  8  1  0
  6  9  1  0
  3 10  1  0
 10 11  1  0
 11 12  1  0
  5 13  1  0
  2 14  1  0
  4 15  1  0
  8 16  1  0
  8 17  1  0
  8 18  1  0
  9 19  1  0
 10 20  1  0
 10 21  1  0
 11 22  1  0
 11 23  1  0
 12 24  1  0
 12 25  1  0
 12 26  1  0
 13 27  1  0
 13 28  1  0
M  END
> <Name>
LISC2017_3'

> <Clean Energy>
14.0379

$$$$
LISC2017_4a
  SciTegic12132405553D

 38 39  0  0  0  0            999 V2000
    3.9096   -1.5031    3.0765 C   0  0
    3.8773   -1.7251    1.6370 C   0  0
    2.7334   -1.7643    0.9702 C   0  0
    1.4738   -1.5920    1.6523 C   0  0
    1.4307   -1.3843    2.9743 C   0  0
    2.7366   -1.3354    3.7426 C   0  0
    5.2517   -1.4877    3.6463 O   0  0
    5.4302   -1.2784    5.0555 C   0  0
    2.6986   -1.1167    5.1345 O   0  0
    2.7448   -1.9959   -0.5128 C   0  0
    2.3045   -0.7342   -1.2148 C   0  0
    2.9199    0.4263   -0.9864 C   0  0
    0.1665   -1.2033    3.7002 N   0  0
   -1.0720   -1.2243    3.1399 C   0  0
   -1.2430   -1.4037    1.9317 O   0  0
   -2.2914   -1.0300    3.9657 C   0  0
   -3.5974   -1.0651    3.3010 C   0  0
   -2.2324   -0.8259    5.2845 C   0  0
   -3.4619   -0.6394    6.0561 C   0  0
   -4.6441   -0.6725    5.4463 C   0  0
   -4.7146   -0.8953    4.0047 C   0  0
    4.7884   -1.8560    1.1113 H   0  0
    0.5970   -1.6329    1.0856 H   0  0
    6.5029   -1.2997    5.2946 H   0  0
    4.9155   -2.0743    5.6135 H   0  0
    5.0122   -0.3010    5.3378 H   0  0
    1.7947   -1.0171    5.4586 H   0  0
    3.7716   -2.2409   -0.8182 H   0  0
    2.0317   -2.7877   -0.7814 H   0  0
    1.5132   -0.7768   -1.9194 H   0  0
    3.7272    0.4775   -0.3000 H   0  0
    2.6025    1.3011   -1.4950 H   0  0
    0.2195   -1.0574    4.6544 H   0  0
   -3.6527   -1.2267    2.2545 H   0  0
   -1.2985   -0.7978    5.7778 H   0  0
   -3.4105   -0.4775    7.1029 H   0  0
   -5.5343   -0.5372    6.0067 H   0  0
   -5.6564   -0.9219    3.5181 H   0  0
  1  2  1  0
  2  3  2  0
  3  4  1  0
  4  5  2  0
  5  6  1  0
  1  6  2  0
  1  7  1  0
  7  8  1  0
  6  9  1  0
  3 10  1  0
 10 11  1  0
 11 12  2  0
  5 13  1  0
 13 14  1  0
 14 16  1  0
 18 19  1  0
 19 20  2  0
 20 21  1  0
 17 21  2  0
 17 16  1  0
 16 18  2  0
 14 15  2  0
  2 22  1  0
  4 23  1  0
  8 24  1  0
  8 25  1  0
  8 26  1  0
  9 27  1  0
 10 28  1  0
 10 29  1  0
 11 30  1  0
 12 31  1  0
 12 32  1  0
 13 33  1  0
 17 34  1  0
 18 35  1  0
 19 36  1  0
 20 37  1  0
 21 38  1  0
M  END
> <Name>
LISC2017_4a

> <Clean Energy>
28.433

$$$$
LISC2017_4a'
  SciTegic12132405553D

 40 41  0  0  0  0            999 V2000
    0.6300    1.0220    1.5195 C   0  0
    1.5825    0.6727    0.4732 C   0  0
    2.8795    0.5892    0.7227 C   0  0
    3.3973    0.8411    2.0429 C   0  0
    2.5792    1.1649    3.0520 C   0  0
    1.0921    1.2636    2.7749 C   0  0
   -0.7566    1.0713    1.0708 O   0  0
   -1.7993    1.4053    1.9997 C   0  0
    0.2251    1.6066    3.8319 O   0  0
    3.8190    0.2254   -0.3770 C   0  0
    4.1136   -1.2750   -0.2639 C   0  0
    5.0854   -1.6796   -1.3791 C   0  0
    3.0727    1.4229    4.4111 N   0  0
    4.3782    1.4023    4.7902 C   0  0
    5.2890    1.1606    3.9945 O   0  0
    4.7740    1.6756    6.1952 C   0  0
    6.1995    1.6507    6.5358 C   0  0
    3.8766    1.9399    7.1486 C   0  0
    4.3155    2.2015    8.5201 C   0  0
    5.6112    2.1774    8.8224 C   0  0
    6.5966    1.8895    7.7838 C   0  0
    1.2297    0.4807   -0.5081 H   0  0
    4.4285    0.7603    2.1909 H   0  0
   -2.7683    1.3919    1.4807 H   0  0
   -1.6183    2.4096    2.4099 H   0  0
   -1.8126    0.6701    2.8175 H   0  0
    0.7040    1.7483    4.6583 H   0  0
    3.3615    0.4198   -1.3571 H   0  0
    4.7730    0.7564   -0.2531 H   0  0
    4.5677   -1.4877    0.7144 H   0  0
    3.1773   -1.8417   -0.3656 H   0  0
    5.3023   -2.7548   -1.3045 H   0  0
    6.0186   -1.1078   -1.2744 H   0  0
    4.6300   -1.4628   -2.3558 H   0  0
    2.4157    1.6244    5.0915 H   0  0
    6.9180    1.4421    5.7844 H   0  0
    2.8457    1.9608    6.9186 H   0  0
    3.5998    2.4102    9.2742 H   0  0
    5.9278    2.3670    9.8166 H   0  0
    7.6294    1.8704    8.0238 H   0  0
  1  2  1  0
  2  3  2  0
  3  4  1  0
  4  5  2  0
  5  6  1  0
  1  6  2  0
  1  7  1  0
  7  8  1  0
  6  9  1  0
  3 10  1  0
 10 11  1  0
 11 12  1  0
  5 13  1  0
 13 14  1  0
 14 16  1  0
 18 19  1  0
 19 20  2  0
 20 21  1  0
 17 21  2  0
 17 16  1  0
 16 18  2  0
 14 15  2  0
  2 22  1  0
  4 23  1  0
  8 24  1  0
  8 25  1  0
  8 26  1  0
  9 27  1  0
 10 28  1  0
 10 29  1  0
 11 30  1  0
 11 31  1  0
 12 32  1  0
 12 33  1  0
 12 34  1  0
 13 35  1  0
 17 36  1  0
 18 37  1  0
 19 38  1  0
 20 39  1  0
 21 40  1  0
M  END
> <Name>
LISC2017_4a'

> <Clean Energy>
16.3623

$$$$
LISC2017_4b
  SciTegic12132405553D

 38 39  0  0  0  0            999 V2000
   -1.1687   -6.8578    3.2090 C   0  0
   -0.4850   -7.2329    4.4395 C   0  0
   -0.2445   -6.3458    5.3934 C   0  0
   -0.6501   -4.9694    5.2424 C   0  0
   -1.2829   -4.5566    4.1370 C   0  0
   -1.5636   -5.5677    3.0431 C   0  0
   -1.3517   -7.9587    2.2706 O   0  0
   -2.0110   -7.7295    1.0159 C   0  0
   -2.2294   -5.1400    1.8766 O   0  0
    0.4632   -6.7742    6.6460 C   0  0
   -0.5021   -6.7190    7.8059 C   0  0
   -1.6696   -7.3610    7.7567 C   0  0
   -1.7118   -3.1640    3.9511 N   0  0
   -1.5165   -2.1555    4.8416 C   0  0
   -0.9409   -2.3324    5.9180 O   0  0
   -1.9916   -0.7772    4.5566 C   0  0
   -1.7454    0.2667    5.5558 C   0  0
   -2.6311   -0.4647    3.4261 C   0  0
   -3.0808    0.9080    3.1904 C   0  0
   -2.8539    1.8505    4.1017 C   0  0
   -2.1550    1.5147    5.3392 C   0  0
   -3.3856    3.4698    3.8213 Cl  0  0
   -0.1751   -8.2373    4.5759 H   0  0
   -0.4375   -4.3049    6.0201 H   0  0
   -2.0541   -8.6704    0.4491 H   0  0
   -1.4509   -6.9800    0.4378 H   0  0
   -3.0327   -7.3659    1.1986 H   0  0
   -2.4430   -4.1991    1.9087 H   0  0
    0.8099   -7.8085    6.5128 H   0  0
    1.2895   -6.0863    6.8731 H   0  0
   -0.2356   -6.1852    8.6826 H   0  0
   -1.9385   -7.9170    6.8940 H   0  0
   -2.3310   -7.3177    8.5845 H   0  0
   -2.1703   -2.9468    3.1282 H   0  0
   -1.2382    0.0268    6.4556 H   0  0
   -2.8162   -1.2060    2.6966 H   0  0
   -3.5884    1.1518    2.2918 H   0  0
   -1.9738    2.2655    6.0658 H   0  0
  1  2  1  0
  2  3  2  0
  3  4  1  0
  4  5  2  0
  5  6  1  0
  1  6  2  0
  1  7  1  0
  7  8  1  0
  6  9  1  0
  3 10  1  0
 10 11  1  0
 11 12  2  0
  5 13  1  0
 13 14  1  0
 14 16  1  0
 18 19  1  0
 19 20  2  0
 20 21  1  0
 17 21  2  0
 17 16  1  0
 16 18  2  0
 14 15  2  0
 20 22  1  0
  2 23  1  0
  4 24  1  0
  8 25  1  0
  8 26  1  0
  8 27  1  0
  9 28  1  0
 10 29  1  0
 10 30  1  0
 11 31  1  0
 12 32  1  0
 12 33  1  0
 13 34  1  0
 17 35  1  0
 18 36  1  0
 19 37  1  0
 21 38  1  0
M  END
> <Name>
LISC2017_4b

> <Clean Energy>
28.3789

$$$$
LISC2017_4b'
  SciTegic12132405553D

 40 41  0  0  0  0            999 V2000
    0.1818    4.8412    4.9230 C   0  0
    0.2612    4.9580    6.4030 C   0  0
    1.3676    4.5882    7.0335 C   0  0
    2.5107    4.0682    6.3001 C   0  0
    2.4761    3.9504    4.9654 C   0  0
    1.2285    4.3663    4.2502 C   0  0
   -0.9682    5.2128    4.1590 O   0  0
   -2.0772    5.7191    4.9180 C   0  0
    1.1143    4.2717    2.8570 O   0  0
    1.4429    4.7110    8.5177 C   0  0
    2.2274    5.9873    8.8437 C   0  0
    2.3301    6.1364   10.3666 C   0  0
    3.5974    3.4386    4.1825 N   0  0
    4.7787    3.0105    4.6939 C   0  0
    5.0101    3.0159    5.9057 O   0  0
    5.8526    2.5113    3.8032 C   0  0
    5.6898    2.4672    2.3393 C   0  0
    6.9949    2.0932    4.3468 C   0  0
    8.0777    1.5945    3.4979 C   0  0
    7.9263    1.5567    2.1762 C   0  0
    6.6773    2.0134    1.5705 C   0  0
    9.2062    0.9679    1.1770 Cl  0  0
   -0.5469    5.3322    6.9744 H   0  0
    3.3617    3.7910    6.8421 H   0  0
   -2.9004    5.9712    4.2346 H   0  0
   -1.7689    6.6220    5.4657 H   0  0
   -2.4174    4.9532    5.6309 H   0  0
    1.9278    3.9141    2.4604 H   0  0
    0.4363    4.7936    8.9511 H   0  0
    2.0060    3.8671    8.9397 H   0  0
    3.2364    5.9191    8.4127 H   0  0
    1.7051    6.8572    8.4210 H   0  0
    2.8924    7.0495   10.6087 H   0  0
    2.8503    5.2623   10.7838 H   0  0
    1.3200    6.2015   10.7954 H   0  0
    3.4863    3.4027    3.2173 H   0  0
    4.7878    2.7967    1.8946 H   0  0
    7.1212    2.1214    5.3991 H   0  0
    8.9844    1.2628    3.9365 H   0  0
    6.5574    1.9833    0.5173 H   0  0
  1  2  1  0
  2  3  2  0
  3  4  1  0
  4  5  2  0
  5  6  1  0
  1  6  2  0
  1  7  1  0
  7  8  1  0
  6  9  1  0
  3 10  1  0
 10 11  1  0
 11 12  1  0
  5 13  1  0
 13 14  1  0
 14 16  1  0
 18 19  1  0
 19 20  2  0
 20 21  1  0
 17 21  2  0
 17 16  1  0
 16 18  2  0
 14 15  2  0
 20 22  1  0
  2 23  1  0
  4 24  1  0
  8 25  1  0
  8 26  1  0
  8 27  1  0
  9 28  1  0
 10 29  1  0
 10 30  1  0
 11 31  1  0
 11 32  1  0
 12 33  1  0
 12 34  1  0
 12 35  1  0
 13 36  1  0
 17 37  1  0
 18 38  1  0
 19 39  1  0
 21 40  1  0
M  END
> <Name>
LISC2017_4b'

> <Clean Energy>
10.6983

$$$$
LISC2017_4c
  SciTegic12132405553D

 42 43  0  0  0  0            999 V2000
    4.1691   -1.8160    3.0884 C   0  0
    3.8932   -1.9016    1.6309 C   0  0
    2.6629   -1.6911    1.1791 C   0  0
    1.5723   -1.3816    2.0933 C   0  0
    1.7849   -1.2970    3.4140 C   0  0
    3.1728   -1.5303    3.9244 C   0  0
    5.4612   -2.0244    3.6638 O   0  0
    6.5104   -2.3302    2.7321 C   0  0
    3.4748   -1.4590    5.2908 O   0  0
    2.3889   -1.7774   -0.2935 C   0  0
    2.0968   -0.3944   -0.8235 C   0  0
    2.9560    0.6073   -0.6332 C   0  0
    0.7274   -0.9883    4.3726 N   0  0
   -0.5752   -0.7736    4.0602 C   0  0
   -0.9885   -0.8247    2.8990 O   0  0
   -1.5670   -0.4674    5.1188 C   0  0
   -1.1871   -0.3744    6.5302 C   0  0
   -2.8364   -0.2724    4.7716 C   0  0
   -3.8512    0.0318    5.7839 C   0  0
   -3.5041    0.1176    7.0822 C   0  0
   -2.1029   -0.0980    7.4542 C   0  0
   -4.4205    0.4101    8.1533 O   0  0
   -5.7974    0.6204    7.7874 C   0  0
    4.6569   -2.1249    0.9338 H   0  0
    0.6187   -1.2255    1.6916 H   0  0
    7.4533   -2.4699    3.2796 H   0  0
    6.6234   -1.5013    2.0175 H   0  0
    6.2643   -3.2548    2.1889 H   0  0
    2.6837   -1.2465    5.8159 H   0  0
    3.2860   -2.1719   -0.7909 H   0  0
    1.5014   -2.3971   -0.4826 H   0  0
    1.2094   -0.2238   -1.3783 H   0  0
    3.8579    0.4444   -0.0987 H   0  0
    2.7379    1.5703   -1.0201 H   0  0
    0.9792   -0.9343    5.3098 H   0  0
   -0.1808   -0.5266    6.8199 H   0  0
   -3.1181   -0.3383    3.7518 H   0  0
   -4.8469    0.1783    5.4623 H   0  0
   -1.8160   -0.0330    8.4729 H   0  0
   -6.3854    0.8335    8.6914 H   0  0
   -6.1924   -0.2837    7.3004 H   0  0
   -5.8699    1.4732    7.0960 H   0  0
  1  2  1  0
  2  3  2  0
  3  4  1  0
  4  5  2  0
  5  6  1  0
  1  6  2  0
  1  7  1  0
  7  8  1  0
  6  9  1  0
  3 10  1  0
 10 11  1  0
 11 12  2  0
  5 13  1  0
 13 14  1  0
 14 16  1  0
 18 19  1  0
 19 20  2  0
 20 21  1  0
 17 21  2  0
 17 16  1  0
 16 18  2  0
 14 15  2  0
 20 22  1  0
 22 23  1  0
  2 24  1  0
  4 25  1  0
  8 26  1  0
  8 27  1  0
  8 28  1  0
  9 29  1  0
 10 30  1  0
 10 31  1  0
 11 32  1  0
 12 33  1  0
 12 34  1  0
 13 35  1  0
 17 36  1  0
 18 37  1  0
 19 38  1  0
 21 39  1  0
 23 40  1  0
 23 41  1  0
 23 42  1  0
M  END
> <Name>
LISC2017_4c

> <Clean Energy>
25.3043

$$$$
LISC2017_4c'
  SciTegic12132405553D

 44 45  0  0  0  0            999 V2000
    0.4903    1.0421    1.9456 C   0  0
    1.2635    0.8886    0.6854 C   0  0
    2.5836    0.7718    0.7336 C   0  0
    3.2925    0.7908    2.0029 C   0  0
    2.6287    0.9265    3.1595 C   0  0
    1.1383    1.0592    3.1090 C   0  0
   -0.9325    1.1749    1.9915 O   0  0
   -1.5966    1.1518    0.7184 C   0  0
    0.3738    1.2055    4.2740 O   0  0
    3.3533    0.6152   -0.5332 C   0  0
    3.5954   -0.8825   -0.7502 C   0  0
    4.3924   -1.0779   -2.0458 C   0  0
    3.2920    0.9491    4.4603 N   0  0
    4.6299    0.8431    4.6592 C   0  0
    5.4242    0.7155    3.7240 O   0  0
    5.1973    0.8767    6.0284 C   0  0
    4.3441    1.0220    7.2161 C   0  0
    6.5158    0.7711    6.1770 C   0  0
    7.1194    0.7983    7.5088 C   0  0
    6.3633    0.9289    8.5968 C   0  0
    4.8806    1.0480    8.4338 C   0  0
    7.0287    0.9462    9.8616 O   0  0
    6.1723    1.0879   11.0053 C   0  0
    0.7872    0.8686   -0.2593 H   0  0
    4.3343    0.6942    1.9892 H   0  0
   -2.6797    1.2607    0.8715 H   0  0
   -1.3944    0.1956    0.2133 H   0  0
   -1.2314    1.9823    0.0960 H   0  0
    0.9373    1.2063    5.0674 H   0  0
    2.7774    1.0015   -1.3857 H   0  0
    4.3362    1.0984   -0.4442 H   0  0
    4.1653   -1.2892    0.0974 H   0  0
    2.6303   -1.4030   -0.8278 H   0  0
    4.5708   -2.1503   -2.2087 H   0  0
    5.3549   -0.5529   -1.9640 H   0  0
    3.8211   -0.6672   -2.8905 H   0  0
    2.7276    1.0477    5.2453 H   0  0
    3.2951    1.1066    7.1066 H   0  0
    7.1350    0.6659    5.3230 H   0  0
    8.1714    0.7129    7.6094 H   0  0
    4.2394    1.1536    9.2690 H   0  0
    6.7835    1.0891   11.9190 H   0  0
    5.4633    0.2475   11.0426 H   0  0
    5.6179    2.0357   10.9368 H   0  0
  1  2  1  0
  2  3  2  0
  3  4  1  0
  4  5  2  0
  5  6  1  0
  1  6  2  0
  1  7  1  0
  7  8  1  0
  6  9  1  0
  3 10  1  0
 10 11  1  0
 11 12  1  0
  5 13  1  0
 13 14  1  0
 14 16  1  0
 18 19  1  0
 19 20  2  0
 20 21  1  0
 17 21  2  0
 17 16  1  0
 16 18  2  0
 14 15  2  0
 20 22  1  0
 22 23  1  0
  2 24  1  0
  4 25  1  0
  8 26  1  0
  8 27  1  0
  8 28  1  0
  9 29  1  0
 10 30  1  0
 10 31  1  0
 11 32  1  0
 11 33  1  0
 12 34  1  0
 12 35  1  0
 12 36  1  0
 13 37  1  0
 17 38  1  0
 18 39  1  0
 19 40  1  0
 21 41  1  0
 23 42  1  0
 23 43  1  0
 23 44  1  0
M  END
> <Name>
LISC2017_4c'

> <Clean Energy>
12.1549

$$$$
LISC2017_4d
  SciTegic12132405553D

 40 41  0  0  0  0            999 V2000
    4.0699   -1.8454    3.1700 C   0  0
    3.8732   -1.8997    1.6981 C   0  0
    2.6751   -1.6511    1.1834 C   0  0
    1.5434   -1.3292    2.0420 C   0  0
    1.6848   -1.2714    3.3736 C   0  0
    3.0361   -1.5485    3.9552 C   0  0
    5.3228   -2.0959    3.8118 O   0  0
    6.4144   -2.4124    2.9340 C   0  0
    3.2637   -1.5074    5.3371 O   0  0
    2.4811   -1.7063   -0.3036 C   0  0
    2.2185   -0.3130   -0.8238 C   0  0
    3.0497    0.6916   -0.5441 C   0  0
    0.5840   -0.9505    4.2778 N   0  0
   -0.6917   -0.6892    3.8972 C   0  0
   -1.0396   -0.7031    2.7138 O   0  0
   -1.7319   -0.3730    4.9046 C   0  0
   -1.4281   -0.3229    6.3453 C   0  0
   -2.9740   -0.1274    4.4896 C   0  0
   -4.0263    0.1886    5.4556 C   0  0
   -3.7472    0.2330    6.7563 C   0  0
   -2.3878   -0.0347    7.2212 C   0  0
   -4.7513    0.5348    7.6768 N   0  3
   -5.8455    0.7501    7.3050 O   0  0
   -4.4715    0.5792    8.9703 O   0  5
    4.6687   -2.1307    1.0402 H   0  0
    0.6176   -1.1424    1.5916 H   0  0
    7.3218   -2.5848    3.5300 H   0  0
    6.5870   -1.5747    2.2418 H   0  0
    6.1767   -3.3212    2.3614 H   0  0
    2.4502   -1.2836    5.8216 H   0  0
    3.4021   -2.0951   -0.7602 H   0  0
    1.6051   -2.3207   -0.5534 H   0  0
    1.3762   -0.1370   -1.4435 H   0  0
    3.9085    0.5248    0.0561 H   0  0
    2.8526    1.6612   -0.9258 H   0  0
    0.7834   -0.9228    5.2287 H   0  0
   -0.4457   -0.5156    6.6883 H   0  0
   -3.2019   -0.1611    3.4548 H   0  0
   -5.0124    0.3827    5.1178 H   0  0
   -2.1651    0.0007    8.2572 H   0  0
  1  2  1  0
  2  3  2  0
  3  4  1  0
  4  5  2  0
  5  6  1  0
  1  6  2  0
  1  7  1  0
  7  8  1  0
  6  9  1  0
  3 10  1  0
 10 11  1  0
 11 12  2  0
  5 13  1  0
 13 14  1  0
 14 16  1  0
 18 19  1  0
 19 20  2  0
 20 21  1  0
 17 21  2  0
 17 16  1  0
 16 18  2  0
 14 15  2  0
 20 22  1  0
 22 24  1  0
 22 23  2  0
  2 25  1  0
  4 26  1  0
  8 27  1  0
  8 28  1  0
  8 29  1  0
  9 30  1  0
 10 31  1  0
 10 32  1  0
 11 33  1  0
 12 34  1  0
 12 35  1  0
 13 36  1  0
 17 37  1  0
 18 38  1  0
 19 39  1  0
 21 40  1  0
M  CHG  2  22   1  24  -1
M  END
> <Name>
LISC2017_4d

> <Clean Energy>
22.0474

$$$$
LISC2017_4d'
  SciTegic12132405553D

 42 43  0  0  0  0            999 V2000
    0.4930    1.1221    1.9270 C   0  0
    1.3361    0.7877    0.7494 C   0  0
    2.6472    0.6532    0.8960 C   0  0
    3.2786    0.8272    2.1942 C   0  0
    2.5506    1.1281    3.2787 C   0  0
    1.0698    1.2814    3.1167 C   0  0
   -0.9259    1.2869    1.8648 O   0  0
   -1.5125    1.1074    0.5664 C   0  0
    0.2405    1.5958    4.2014 O   0  0
    3.4873    0.3155   -0.2881 C   0  0
    3.7065   -1.2013   -0.2881 C   0  0
    4.5748   -1.5811   -1.4938 C   0  0
    3.1347    1.3115    4.6051 N   0  0
    4.4560    1.2018    4.9010 C   0  0
    5.2983    0.9292    4.0422 O   0  0
    4.9526    1.4063    6.2851 C   0  0
    6.3898    1.2736    6.5375 C   0  0
    4.1339    1.7045    7.2972 C   0  0
    4.6695    1.8966    8.6450 C   0  0
    5.9763    1.7745    8.8674 C   0  0
    6.8755    1.4486    7.7642 C   0  0
    6.4902    1.9570   10.1520 N   0  3
    5.6798    2.2525   11.1570 O   0  5
    7.6450    1.8478   10.3419 O   0  0
    0.9172    0.6516   -0.2127 H   0  0
    4.3164    0.7099    2.2589 H   0  0
   -2.5995    1.2563    0.6350 H   0  0
   -1.3065    0.0888    0.2053 H   0  0
   -1.0881    1.8407   -0.1355 H   0  0
    0.7545    1.6912    5.0219 H   0  0
    2.9729    0.5928   -1.2187 H   0  0
    4.4744    0.7907   -0.2029 H   0  0
    4.2150   -1.4991    0.6400 H   0  0
    2.7357   -1.7126   -0.3558 H   0  0
    4.7374   -2.6683   -1.5011 H   0  0
    5.5427   -1.0646   -1.4227 H   0  0
    4.0649   -1.2789   -2.4197 H   0  0
    2.5259    1.5285    5.3306 H   0  0
    7.0462    1.0370    5.7391 H   0  0
    3.0953    1.8033    7.1304 H   0  0
    4.0146    2.1331    9.4443 H   0  0
    7.9166    1.3512    7.9403 H   0  0
  1  2  1  0
  2  3  2  0
  3  4  1  0
  4  5  2  0
  5  6  1  0
  1  6  2  0
  1  7  1  0
  7  8  1  0
  6  9  1  0
  3 10  1  0
 10 11  1  0
 11 12  1  0
  5 13  1  0
 13 14  1  0
 14 16  1  0
 18 19  1  0
 19 20  2  0
 20 21  1  0
 17 21  2  0
 17 16  1  0
 16 18  2  0
 14 15  2  0
 20 22  1  0
 22 24  2  0
 22 23  1  0
  2 25  1  0
  4 26  1  0
  8 27  1  0
  8 28  1  0
  8 29  1  0
  9 30  1  0
 10 31  1  0
 10 32  1  0
 11 33  1  0
 11 34  1  0
 12 35  1  0
 12 36  1  0
 12 37  1  0
 13 38  1  0
 17 39  1  0
 18 40  1  0
 19 41  1  0
 21 42  1  0
M  CHG  2  22   1  23  -1
M  END
> <Name>
LISC2017_4d'

> <Clean Energy>
10.2359

$$$$
LISC2017_5a
  SciTegic12132405553D

 35 37  0  0  0  0            999 V2000
    1.3682   -1.8119    3.7247 C   0  0
    1.1539   -1.7951    2.2312 C   0  0
    2.1941   -2.0082    1.4122 C   0  0
    3.5350   -2.2615    1.9708 C   0  0
    3.6639   -2.2655    3.2885 C   0  0
    2.6045   -2.0453    4.1435 C   0  0
    0.3447   -1.5965    4.6918 O   0  0
   -0.9581   -1.3511    4.1428 C   0  0
    1.9908   -1.9945   -0.0742 C   0  0
    1.7576   -0.5739   -0.5285 C   0  0
    2.6228    0.3935   -0.2229 C   0  0
    4.7992   -2.4746    4.0411 N   0  0
    4.4257   -2.3818    5.2675 C   0  0
    3.0591   -2.1131    5.3955 O   0  0
    5.3242   -2.5391    6.4003 C   0  0
    4.8062   -2.4157    7.7611 C   0  0
    6.6146   -2.7949    6.1971 C   0  0
    7.5165   -2.9530    7.3386 C   0  0
    7.0457   -2.8408    8.5793 C   0  0
    5.6257   -2.5593    8.8005 C   0  0
    0.1985   -1.6173    1.8108 H   0  0
    4.3675   -2.4334    1.3377 H   0  0
   -1.6748   -1.1977    4.9621 H   0  0
   -1.2737   -2.2154    3.5398 H   0  0
   -0.9290   -0.4510    3.5108 H   0  0
    2.9044   -2.3759   -0.5515 H   0  0
    1.1015   -2.5796   -0.3470 H   0  0
    0.9086   -0.3476   -1.1221 H   0  0
    3.4877    0.1760    0.3515 H   0  0
    2.4467    1.3840   -0.5580 H   0  0
    3.7776   -2.2118    7.9196 H   0  0
    6.9885   -2.8842    5.2088 H   0  0
    8.5448   -3.1569    7.1778 H   0  0
    7.6990   -2.9553    9.4069 H   0  0
    5.2502   -2.4698    9.7883 H   0  0
  1  2  1  0
  2  3  2  0
  3  4  1  0
  4  5  2  0
  5  6  1  0
  1  6  2  0
  1  7  1  0
  7  8  1  0
  3  9  1  0
  9 10  1  0
 10 11  2  0
  5 12  1  0
 13 15  1  0
 17 18  1  0
 18 19  2  0
 19 20  1  0
 16 20  2  0
 16 15  1  0
 15 17  2  0
  6 14  1  0
 13 14  1  0
 12 13  2  0
  2 21  1  0
  4 22  1  0
  8 23  1  0
  8 24  1  0
  8 25  1  0
  9 26  1  0
  9 27  1  0
 10 28  1  0
 11 29  1  0
 11 30  1  0
 16 31  1  0
 17 32  1  0
 18 33  1  0
 19 34  1  0
 20 35  1  0
M  END
> <Name>
LISC2017_5a

> <Clean Energy>
40.0161

$$$$
LISC2017_5a'
  SciTegic12132405553D

 37 39  0  0  0  0            999 V2000
    1.0200    2.2957    3.9985 C   0  0
    1.6609    1.4937    2.8930 C   0  0
    1.4011    1.8054    1.6157 C   0  0
    0.4977    2.9220    1.2954 C   0  0
   -0.0364    3.5925    2.3049 C   0  0
    0.2200    3.2849    3.6249 C   0  0
    1.2177    2.0597    5.3892 O   0  0
    2.0978    0.9682    5.6936 C   0  0
    2.0282    1.0177    0.5157 C   0  0
    1.1556   -0.2176    0.2672 C   0  0
    1.7794   -1.0517   -0.8587 C   0  0
   -0.9012    4.6651    2.2644 N   0  0
   -1.1375    4.9678    3.4911 C   0  0
   -0.4625    4.1367    4.3910 O   0  0
   -2.0106    6.0564    3.8998 C   0  0
   -2.6758    6.8771    2.8897 C   0  0
   -2.2018    6.3034    5.1934 C   0  0
   -3.0798    7.3987    5.6063 C   0  0
   -3.6866    8.1475    4.6872 C   0  0
   -3.4749    7.8742    3.2640 C   0  0
    2.3136    0.6861    3.1009 H   0  0
    0.2825    3.1805    0.2901 H   0  0
    2.1861    0.8656    6.7845 H   0  0
    3.0917    1.1642    5.2646 H   0  0
    1.6910    0.0370    5.2718 H   0  0
    2.0630    1.6085   -0.4103 H   0  0
    3.0234    0.6640    0.8192 H   0  0
    1.1014   -0.8204    1.1850 H   0  0
    0.1445    0.0999   -0.0244 H   0  0
    1.1598   -1.9409   -1.0433 H   0  0
    2.7915   -1.3634   -0.5633 H   0  0
    1.8348   -0.4452   -1.7739 H   0  0
   -2.5216    6.6781    1.8596 H   0  0
   -1.7177    5.7063    5.9240 H   0  0
   -3.2327    7.5962    6.6370 H   0  0
   -4.3231    8.9416    4.9859 H   0  0
   -3.9579    8.4702    2.5318 H   0  0
  1  2  1  0
  2  3  2  0
  3  4  1  0
  4  5  2  0
  5  6  1  0
  1  6  2  0
  1  7  1  0
  7  8  1  0
  3  9  1  0
  9 10  1  0
 10 11  1  0
  5 12  1  0
 13 15  1  0
 17 18  1  0
 18 19  2  0
 19 20  1  0
 16 20  2  0
 16 15  1  0
 15 17  2  0
 12 13  2  0
 13 14  1  0
  6 14  1  0
  2 21  1  0
  4 22  1  0
  8 23  1  0
  8 24  1  0
  8 25  1  0
  9 26  1  0
  9 27  1  0
 10 28  1  0
 10 29  1  0
 11 30  1  0
 11 31  1  0
 11 32  1  0
 16 33  1  0
 17 34  1  0
 18 35  1  0
 19 36  1  0
 20 37  1  0
M  END
> <Name>
LISC2017_5a'

> <Clean Energy>
27.9999

$$$$
LISC2017_5b
  SciTegic12132405553D

 35 37  0  0  0  0            999 V2000
    2.7880   -2.8639    2.3029 C   0  0
    1.3444   -2.5503    1.9953 C   0  0
    0.4868   -2.3317    3.0027 C   0  0
    0.9557   -2.3936    4.3993 C   0  0
    2.2328   -2.6722    4.6097 C   0  0
    3.1262   -2.9020    3.5845 C   0  0
    3.7885   -3.1165    1.3208 O   0  0
    3.3271   -3.0541   -0.0363 C   0  0
   -0.9502   -2.0182    2.7066 C   0  0
   -1.6410   -3.2725    2.2289 C   0  0
   -1.6087   -4.3905    2.9545 C   0  0
    2.9021   -2.7859    5.8089 N   0  0
    4.1186   -3.0668    5.5031 C   0  0
    4.3207   -3.1531    4.1219 O   0  0
    5.1718   -3.2725    6.4848 C   0  0
    6.5275   -3.5887    6.0405 C   0  0
    4.9006   -3.1727    7.7841 C   0  0
    5.9620   -3.3801    8.7699 C   0  0
    7.1979   -3.6683    8.3662 C   0  0
    7.4942   -3.7775    6.9364 C   0  0
    8.4513   -3.9131    9.5292 Cl  0  0
    0.9889   -2.4991    0.9992 H   0  0
    0.2914   -2.2220    5.2071 H   0  0
    4.1661   -3.2619   -0.7155 H   0  0
    2.9292   -2.0500   -0.2455 H   0  0
    2.5373   -3.8040   -0.1928 H   0  0
   -1.4287   -1.6806    3.6367 H   0  0
   -1.0245   -1.2723    1.9031 H   0  0
   -2.1823   -3.2562    1.3173 H   0  0
   -1.0892   -4.4136    3.8792 H   0  0
   -2.1070   -5.2597    2.6069 H   0  0
    6.7404   -3.6675    5.0046 H   0  0
    3.9162   -2.9432    8.1045 H   0  0
    5.7472   -3.3009    9.8054 H   0  0
    8.4782   -4.0070    6.6146 H   0  0
  1  2  1  0
  2  3  2  0
  3  4  1  0
  4  5  2  0
  5  6  1  0
  1  6  2  0
  1  7  1  0
  7  8  1  0
  3  9  1  0
  9 10  1  0
 10 11  2  0
  5 12  1  0
 13 15  1  0
 17 18  1  0
 18 19  2  0
 19 20  1  0
 16 20  2  0
 16 15  1  0
 15 17  2  0
  6 14  1  0
 13 14  1  0
 12 13  2  0
 19 21  1  0
  2 22  1  0
  4 23  1  0
  8 24  1  0
  8 25  1  0
  8 26  1  0
  9 27  1  0
  9 28  1  0
 10 29  1  0
 11 30  1  0
 11 31  1  0
 16 32  1  0
 17 33  1  0
 18 34  1  0
 20 35  1  0
M  END
> <Name>
LISC2017_5b

> <Clean Energy>
39.9443

$$$$
LISC2017_5b'
  SciTegic12132405553D

 37 39  0  0  0  0            999 V2000
    1.3802    2.3475    3.9532 C   0  0
    2.0244    1.7388    2.7322 C   0  0
    1.5726    2.0682    1.5143 C   0  0
    0.4568    3.0168    1.3704 C   0  0
   -0.0706    3.5211    2.4755 C   0  0
    0.3819    3.1929    3.7365 C   0  0
    1.7707    2.0748    5.2956 O   0  0
    2.8577    1.1477    5.4280 C   0  0
    2.2013    1.4706    0.3015 C   0  0
    1.5224    0.1220    0.0384 C   0  0
    2.1519   -0.5205   -1.2040 C   0  0
   -1.1097    4.4179    2.6019 N   0  0
   -1.2569    4.6038    3.8652 C   0  0
   -0.3497    3.8616    4.6285 O   0  0
   -2.2568    5.4896    4.4394 C   0  0
   -3.1649    6.2293    3.5649 C   0  0
   -2.3427    5.6254    5.7604 C   0  0
   -3.3481    6.5168    6.3396 C   0  0
   -4.1762    7.1914    5.5441 C   0  0
   -4.0803    7.0408    4.0906 C   0  0
   -5.3633    8.2440    6.2270 Cl  0  0
    2.8280    1.0539    2.8128 H   0  0
    0.0884    3.2869    0.4138 H   0  0
    3.0841    1.0026    6.4938 H   0  0
    3.7472    1.5458    4.9175 H   0  0
    2.5765    0.1826    4.9807 H   0  0
    2.0388    2.1147   -0.5740 H   0  0
    3.2678    1.2760    0.4806 H   0  0
    1.6657   -0.5374    0.9064 H   0  0
    0.4478    0.2789   -0.1307 H   0  0
    1.6708   -1.4894   -1.3998 H   0  0
    3.2270   -0.6717   -1.0308 H   0  0
    2.0094    0.1428   -2.0690 H   0  0
   -3.0943    6.1193    2.5125 H   0  0
   -1.6823    5.0875    6.3923 H   0  0
   -3.4174    6.6257    7.3922 H   0  0
   -4.7395    7.5779    3.4570 H   0  0
  1  2  1  0
  2  3  2  0
  3  4  1  0
  4  5  2  0
  5  6  1  0
  1  6  2  0
  1  7  1  0
  7  8  1  0
  3  9  1  0
  9 10  1  0
 10 11  1  0
  5 12  1  0
 13 15  1  0
 17 18  1  0
 18 19  2  0
 19 20  1  0
 16 20  2  0
 16 15  1  0
 15 17  2  0
 12 13  2  0
 13 14  1  0
  6 14  1  0
 19 21  1  0
  2 22  1  0
  4 23  1  0
  8 24  1  0
  8 25  1  0
  8 26  1  0
  9 27  1  0
  9 28  1  0
 10 29  1  0
 10 30  1  0
 11 31  1  0
 11 32  1  0
 11 33  1  0
 16 34  1  0
 17 35  1  0
 18 36  1  0
 20 37  1  0
M  END
> <Name>
LISC2017_5b'

> <Clean Energy>
27.9245

$$$$
LISC2017_5c
  SciTegic12132405553D

 39 41  0  0  0  0            999 V2000
    1.6647   -1.6071    4.1503 C   0  0
    1.2037   -1.2065    2.7706 C   0  0
    2.0240   -1.3791    1.7239 C   0  0
    3.3643   -1.9608    1.9232 C   0  0
    3.7152   -2.2946    3.1555 C   0  0
    2.8838   -2.1206    4.2421 C   0  0
    0.8864   -1.4698    5.3354 O   0  0
   -0.4169   -0.9040    5.1358 C   0  0
    1.5740   -0.9849    0.3481 C   0  0
    1.5500    0.5210    0.2487 C   0  0
    2.6297    1.2439    0.5473 C   0  0
    4.8991   -2.8480    3.5928 N   0  0
    4.7683   -2.9898    4.8636 C   0  0
    3.5249   -2.5505    5.3296 O   0  0
    5.8000   -3.5468    5.7236 C   0  0
    7.0673   -3.9809    5.1497 C   0  0
    5.5824   -3.6581    7.0303 C   0  0
    6.6130   -4.2174    7.9037 C   0  0
    7.7799   -4.6218    7.4040 C   0  0
    8.0173   -4.4927    5.9292 C   0  0
    8.7372   -5.1577    8.3197 O   0  0
    9.9783   -5.5799    7.7340 C   0  0
    0.2444   -0.7894    2.6067 H   0  0
    4.0244   -2.1055    1.1067 H   0  0
   -0.9369   -0.8389    6.1021 H   0  0
   -0.9963   -1.5428    4.4527 H   0  0
   -0.3201    0.1039    4.7054 H   0  0
    2.2986   -1.3788   -0.3785 H   0  0
    0.5535   -1.3457    0.1584 H   0  0
    0.6711    1.0086   -0.0894 H   0  0
    3.5220    0.7666    0.8655 H   0  0
    2.5969    2.3006    0.4635 H   0  0
    7.2328   -3.8887    4.1064 H   0  0
    4.6574   -3.3399    7.4400 H   0  0
    6.4302   -4.3022    8.9446 H   0  0
    8.9280   -4.8001    5.4862 H   0  0
   10.6367   -5.9728    8.5217 H   0  0
   10.4664   -4.7239    7.2449 H   0  0
    9.7872   -6.3693    6.9919 H   0  0
  1  2  1  0
  2  3  2  0
  3  4  1  0
  4  5  2  0
  5  6  1  0
  1  6  2  0
  1  7  1  0
  7  8  1  0
  3  9  1  0
  9 10  1  0
 10 11  2  0
  5 12  1  0
 13 15  1  0
 17 18  1  0
 18 19  2  0
 19 20  1  0
 16 20  2  0
 16 15  1  0
 15 17  2  0
  6 14  1  0
 13 14  1  0
 12 13  2  0
 19 21  1  0
 21 22  1  0
  2 23  1  0
  4 24  1  0
  8 25  1  0
  8 26  1  0
  8 27  1  0
  9 28  1  0
  9 29  1  0
 10 30  1  0
 11 31  1  0
 11 32  1  0
 16 33  1  0
 17 34  1  0
 18 35  1  0
 20 36  1  0
 22 37  1  0
 22 38  1  0
 22 39  1  0
M  END
> <Name>
LISC2017_5c

> <Clean Energy>
41.4041

$$$$
LISC2017_5c'
  SciTegic12132405553D

 41 43  0  0  0  0            999 V2000
    1.3826    2.0941    3.7818 C   0  0
    1.9663    1.3910    2.6154 C   0  0
    1.5587    1.6806    1.3731 C   0  0
    0.5283    2.6999    1.1580 C   0  0
    0.0311    3.3068    2.2239 C   0  0
    0.4434    3.0168    3.5187 C   0  0
    1.8628    1.7359    5.0876 O   0  0
    1.2787    2.4328    6.1994 C   0  0
    2.1526    0.9646    0.2069 C   0  0
    1.3648   -0.3345    0.0042 C   0  0
    1.9554   -1.0963   -1.1888 C   0  0
   -0.9355    4.2889    2.2719 N   0  0
   -1.0904    4.5672    3.5151 C   0  0
   -0.2634    3.8112    4.3420 O   0  0
   -2.0249    5.5628    4.0112 C   0  0
   -2.8531    6.3135    3.0761 C   0  0
   -2.1191    5.7842    5.3184 C   0  0
   -3.0552    6.7837    5.8305 C   0  0
   -3.8235    7.4838    4.9971 C   0  0
   -3.7110    7.2277    3.5239 C   0  0
   -4.7134    8.4428    5.5720 O   0  0
   -5.5198    9.1722    4.6342 C   0  0
    2.7119    0.6521    2.7649 H   0  0
    0.1934    2.9424    0.1819 H   0  0
    1.7287    2.0689    7.1339 H   0  0
    0.1938    2.2497    6.2216 H   0  0
    1.4680    3.5122    6.0996 H   0  0
    2.0582    1.5698   -0.7055 H   0  0
    3.1959    0.6913    0.4171 H   0  0
    1.4380   -0.9541    0.9093 H   0  0
    0.3101   -0.0970   -0.1944 H   0  0
    1.3962   -2.0305   -1.3410 H   0  0
    3.0110   -1.3281   -0.9865 H   0  0
    1.8831   -0.4728   -2.0913 H   0  0
   -2.7715    6.1306    2.0349 H   0  0
   -1.5122    5.2332    5.9920 H   0  0
   -3.1233    6.9534    6.8749 H   0  0
   -4.3003    7.7587    2.8233 H   0  0
   -6.1628    9.8776    5.1796 H   0  0
   -6.1486    8.4721    4.0644 H   0  0
   -4.8701    9.7306    3.9440 H   0  0
  1  2  1  0
  2  3  2  0
  3  4  1  0
  4  5  2  0
  5  6  1  0
  1  6  2  0
  1  7  1  0
  7  8  1  0
  3  9  1  0
  9 10  1  0
 10 11  1  0
  5 12  1  0
 13 15  1  0
 17 18  1  0
 18 19  2  0
 19 20  1  0
 16 20  2  0
 16 15  1  0
 15 17  2  0
 12 13  2  0
 13 14  1  0
  6 14  1  0
 19 21  1  0
 21 22  1  0
  2 23  1  0
  4 24  1  0
  8 25  1  0
  8 26  1  0
  8 27  1  0
  9 28  1  0
  9 29  1  0
 10 30  1  0
 10 31  1  0
 11 32  1  0
 11 33  1  0
 11 34  1  0
 16 35  1  0
 17 36  1  0
 18 37  1  0
 20 38  1  0
 22 39  1  0
 22 40  1  0
 22 41  1  0
M  END
> <Name>
LISC2017_5c'

> <Clean Energy>
30.6948

$$$$
LISC2017_5d
  SciTegic12132405553D

 37 39  0  0  0  0            999 V2000
    1.3741   -1.7750    3.7021 C   0  0
    1.1739   -1.7776    2.2070 C   0  0
    2.2196   -2.0133    1.4007 C   0  0
    3.5526   -2.2719    1.9755 C   0  0
    3.6687   -2.2600    3.2947 C   0  0
    2.6034   -2.0165    4.1360 C   0  0
    0.3442   -1.5344    4.6561 O   0  0
   -0.9500   -1.2807    4.0913 C   0  0
    2.0306   -2.0217   -0.0876 C   0  0
    1.7063   -0.6240   -0.5501 C   0  0
    2.5285    0.3899   -0.2817 C   0  0
    4.7940   -2.4735    4.0626 N   0  0
    4.4080   -2.3612    5.2838 C   0  0
    3.0442   -2.0730    5.3930 O   0  0
    5.2896   -2.5201    6.4301 C   0  0
    4.7547   -2.3750    7.7818 C   0  0
    6.5783   -2.7987    6.2478 C   0  0
    7.4612   -2.9605    7.4033 C   0  0
    6.9743   -2.8289    8.6363 C   0  0
    5.5564   -2.5220    8.8341 C   0  0
    7.8139   -2.9837    9.7400 N   0  3
    8.9524   -3.2308    9.5837 O   0  0
    7.3274   -2.8530   10.9646 O   0  5
    0.2241   -1.5971    1.7756 H   0  0
    4.3891   -2.4621    1.3529 H   0  0
   -1.6726   -1.1075    4.9013 H   0  0
   -1.2703   -2.1491    3.4967 H   0  0
   -0.9038   -0.3896    3.4475 H   0  0
    2.9696   -2.3519   -0.5539 H   0  0
    1.1819   -2.6643   -0.3598 H   0  0
    0.8272   -0.4506   -1.1175 H   0  0
    3.4206    0.2228    0.2677 H   0  0
    2.2907    1.3664   -0.6205 H   0  0
    3.7275   -2.1529    7.9236 H   0  0
    6.9645   -2.9042    5.2659 H   0  0
    8.4877   -3.1829    7.2583 H   0  0
    5.1677   -2.4168    9.8150 H   0  0
  1  2  1  0
  2  3  2  0
  3  4  1  0
  4  5  2  0
  5  6  1  0
  1  6  2  0
  1  7  1  0
  7  8  1  0
  3  9  1  0
  9 10  1  0
 10 11  2  0
  5 12  1  0
 13 15  1  0
 17 18  1  0
 18 19  2  0
 19 20  1  0
 16 20  2  0
 16 15  1  0
 15 17  2  0
  6 14  1  0
 13 14  1  0
 12 13  2  0
 19 21  1  0
 21 23  1  0
 21 22  2  0
  2 24  1  0
  4 25  1  0
  8 26  1  0
  8 27  1  0
  8 28  1  0
  9 29  1  0
  9 30  1  0
 10 31  1  0
 11 32  1  0
 11 33  1  0
 16 34  1  0
 17 35  1  0
 18 36  1  0
 20 37  1  0
M  CHG  2  21   1  23  -1
M  END
> <Name>
LISC2017_5d

> <Clean Energy>
39.2923

$$$$
LISC2017_5d'
  DSViewer          3D                             0

 39 41  0  0  0  0  0  0  0  0999 V2000
    1.3087    2.0488    3.8312 C   0  0
    1.9017    1.3309    2.6783 C   0  0
    1.5753    1.6707    1.4249 C   0  0
    0.6251    2.7597    1.1839 C   0  0
    0.1167    3.3776    2.2381 C   0  0
    0.4456    3.0365    3.5443 C   0  0
    1.7003    1.6351    5.1501 O   0  0
    1.1095    2.3481    6.2481 C   0  0
    2.1774    0.9394    0.2731 C   0  0
    1.2729   -0.2558   -0.0458 C   0  0
    1.8667   -1.0306   -1.2287 C   0  0
   -0.7854    4.4197    2.2616 N   0  0
   -0.9827    4.6841    3.5018 C   0  0
   -0.2476    3.8602    4.3505 O   0  0
   -1.8744    5.7291    3.9739 C   0  0
   -2.6092    6.5512    3.0154 C   0  0
   -2.0191    5.9347    5.2805 C   0  0
   -2.9157    6.9861    5.7599 C   0  0
   -3.5866    7.7370    4.8873 C   0  0
   -3.4256    7.5087    3.4498 C   0  0
   -4.4434    8.7416    5.3392 N   0  3
   -4.5936    8.9535    6.6380 O   0  5
   -5.0326    9.4011    4.5650 O   0  0
    2.5893    0.5416    2.8465 H   0  0
    0.3547    3.0423    0.1986 H   0  0
    1.4887    1.9378    7.1947 H   0  0
    0.0152    2.2368    6.2148 H   0  0
    1.3733    3.4143    6.1811 H   0  0
    2.2125    1.5847   -0.6158 H   0  0
    3.1689    0.5494    0.5421 H   0  0
    1.2109   -0.9143    0.8323 H   0  0
    0.2677    0.1040   -0.3072 H   0  0
    1.2237   -1.8906   -1.4641 H   0  0
    2.8731   -1.3851   -0.9637 H   0  0
    1.9298   -0.3678   -2.1036 H   0  0
   -2.4917    6.3850    1.9747 H   0  0
   -1.4838    5.3357    5.9735 H   0  0
   -3.0304    7.1492    6.8010 H   0  0
   -3.9593    8.1059    2.7548 H   0  0
  1  2  1  0  0  0
  2  3  2  0  0  0
  3  4  1  0  0  0
  4  5  2  0  0  0
  5  6  1  0  0  0
  1  6  2  0  0  0
  1  7  1  0  0  0
  7  8  1  0  0  0
  3  9  1  0  0  0
  9 10  1  0  0  0
 10 11  1  0  0  0
  5 12  1  0  0  0
 13 15  1  0  0  0
 17 18  1  0  0  0
 18 19  2  0  0  0
 19 20  1  0  0  0
 16 20  2  0  0  0
 16 15  1  0  0  0
 15 17  2  0  0  0
 12 13  2  0  0  0
 13 14  1  0  0  0
  6 14  1  0  0  0
 19 21  1  0  0  0
 21 22  1  0  0  0
 21 23  2  0  0  0
  2 24  1  0  0  0
  4 25  1  0  0  0
  8 26  1  0  0  0
  8 27  1  0  0  0
  8 28  1  0  0  0
  9 29  1  0  0  0
  9 30  1  0  0  0
 10 31  1  0  0  0
 10 32  1  0  0  0
 11 33  1  0  0  0
 11 34  1  0  0  0
 11 35  1  0  0  0
 16 36  1  0  0  0
 17 37  1  0  0  0
 18 38  1  0  0  0
 20 39  1  0  0  0
M  CHG  2  21   1  22  -1
M  END
> <Clean Energy>
1.06024e+06

$$$$
AAA2022_1
  DSViewer          3D                             0

 77 82  0  0  0  0  0  0  0  0999 V2000
   -7.5990    1.3860   -0.7623 C   0  0
   -7.7083    0.0546   -0.8400 C   0  0
   -6.6219   -0.8523   -0.3278 C   0  0  1  0  0  0
   -5.2579   -0.1368   -0.4861 C   0  0  2  0  0  0
   -5.1973    1.2307    0.2477 C   0  0  2  0  0  0
   -6.4040    2.0589   -0.1950 C   0  0
   -3.8298    1.9596   -0.0968 C   0  0  2  0  0  0
   -2.6137    1.0407    0.2232 C   0  0  1  0  0  0
   -2.6620   -0.2327   -0.6706 C   0  0
   -3.9743   -1.0024   -0.4874 C   0  0  1  0  0  0
   -3.6932    3.3023    0.7151 C   0  0
   -2.3728    4.0085    0.3097 C   0  0
   -1.1710    3.1020    0.6749 C   0  0  1  0  0  0
   -1.3223    1.8048   -0.1002 C   0  0  1  0  0  0
    0.2384    3.4958    0.0284 C   0  0  2  0  0  0
    1.0354    2.1713    0.3257 C   0  0
   -0.0368    1.0229    0.2071 C   0  0
    0.9827    4.8864    0.4986 C   0  0  1  0  0  0
    2.3659    5.2173   -0.2171 C   0  0  1  0  0  0
    2.8033    6.4685    0.2350 O   0  0
    4.0139    6.9405   -0.1716 C   0  0
    5.0100    6.0148   -0.7094 C   0  0
    4.7845    4.7019   -0.6382 C   0  0
    3.5194    4.2009   -0.0022 C   0  0
    4.2683    8.1469   -0.0909 O   0  0
    6.2925    6.5443   -1.2911 C   0  0
    5.8100    3.7213   -1.1347 C   0  0
    0.1168    6.1232    0.1678 C   0  0
    1.1532    4.8432    1.5831 H   0  0
   -3.7963    2.1787   -1.1720 H   0  0
   -5.2772    1.0490    1.7959 C   0  0
   -2.6186    0.7682    1.2838 H   0  0
   -1.3149    2.0848   -1.1619 H   0  0
    0.0594    3.5397   -1.0543 H   0  0
   -1.1646    2.9747    2.2807 C   0  0
   -0.1870    2.1232    2.8922 O   0  0
   -0.3223    2.1746    4.2725 C   0  0
    0.5940    1.3669    5.1427 C   0  0
   -1.1929    2.8876    4.7846 O   0  0
   -4.5395   -0.9682    0.6292 O   0  0
   -4.0908   -1.9173   -1.0842 H   0  0
   -6.4157    3.2899   -0.0919 O   0  0
    2.1921    5.2966   -1.2994 H   0  0
   -6.9062   -1.1884    1.0320 O   0  0
   -6.6202   -1.7881   -0.9038 H   0  0
   -8.4204    2.0008   -1.1305 H   0  0
   -8.6030   -0.3824   -1.2834 H   0  0
   -2.5697    0.0650   -1.7151 H   0  0
   -1.8300   -0.8840   -0.4029 H   0  0
   -4.5386    3.9524    0.4901 H   0  0
   -3.6768    3.0831    1.7827 H   0  0
   -2.3749    4.1941   -0.7644 H   0  0
   -2.2887    4.9556    0.8425 H   0  0
    1.8319    2.0301   -0.4049 H   0  0
    1.4618    2.1966    1.3286 H   0  0
    0.2096    0.3352   -0.6020 H   0  0
   -0.1260    0.4685    1.1413 H   0  0
    3.2452    3.2465   -0.4516 H   0  0
    3.6842    4.0657    1.0668 H   0  0
    6.9052    5.7125   -1.6386 H   0  0
    6.8360    7.1008   -0.5274 H   0  0
    6.0670    7.2038   -2.1292 H   0  0
    5.4418    2.7056   -0.9905 H   0  0
    6.7383    3.8530   -0.5788 H   0  0
    5.9944    3.8933   -2.1951 H   0  0
    0.6346    7.0265    0.4901 H   0  0
   -0.8386    6.0479    0.6870 H   0  0
   -0.0569    6.1687   -0.9073 H   0  0
   -5.2322    2.0247    2.2795 H   0  0
   -4.4407    0.4375    2.1341 H   0  0
   -6.2147    0.5578    2.0566 H   0  0
   -1.0160    3.9768    2.6829 H   0  0
   -2.1457    2.6048    2.5786 H   0  0
    0.3408    1.5323    6.1899 H   0  0
    1.6256    1.6716    4.9664 H   0  0
    0.4824    0.3089    4.9052 H   0  0
   -6.9402   -0.3124    1.6099 H   0  0
  1  2  2  0  0  0
  2  3  1  0  0  0
  3  4  1  0  0  0
  4  5  1  0  0  0
  5  6  1  0  0  0
  6  1  1  0  0  0
  5  7  1  0  0  0
  7  8  1  0  0  0
  8  9  1  0  0  0
  9 10  1  0  0  0
 10  4  1  0  0  0
  7 11  1  0  0  0
 11 12  1  0  0  0
 12 13  1  0  0  0
 13 14  1  0  0  0
 14  8  1  0  0  0
 13 15  1  0  0  0
 15 16  1  0  0  0
 16 17  1  0  0  0
 17 14  1  0  0  0
 15 18  1  0  0  0
 18 19  1  0  0  0
 19 20  1  0  0  0
 20 21  1  0  0  0
 21 22  1  0  0  0
 22 23  2  0  0  0
 23 24  1  0  0  0
 19 24  1  0  0  0
 21 25  2  0  0  0
 22 26  1  0  0  0
 23 27  1  0  0  0
 18 28  1  0  0  0
 18 29  1  0  0  0
  7 30  1  0  0  0
  5 31  1  0  0  0
  8 32  1  0  0  0
 14 33  1  0  0  0
 15 34  1  0  0  0
 13 35  1  0  0  0
 35 36  1  0  0  0
 36 37  1  0  0  0
 37 38  1  0  0  0
 37 39  2  0  0  0
 10 40  1  0  0  0
  4 40  1  0  0  0
 10 41  1  0  0  0
  6 42  2  0  0  0
 19 43  1  0  0  0
  3 44  1  0  0  0
  3 45  1  0  0  0
  1 46  1  0  0  0
  2 47  1  0  0  0
  9 48  1  0  0  0
  9 49  1  0  0  0
 11 50  1  0  0  0
 11 51  1  0  0  0
 12 52  1  0  0  0
 12 53  1  0  0  0
 16 54  1  0  0  0
 16 55  1  0  0  0
 17 56  1  0  0  0
 17 57  1  0  0  0
 24 58  1  0  0  0
 24 59  1  0  0  0
 26 60  1  0  0  0
 26 61  1  0  0  0
 26 62  1  0  0  0
 27 63  1  0  0  0
 27 64  1  0  0  0
 27 65  1  0  0  0
 28 66  1  0  0  0
 28 67  1  0  0  0
 28 68  1  0  0  0
 31 69  1  0  0  0
 31 70  1  0  0  0
 31 71  1  0  0  0
 35 72  1  0  0  0
 35 73  1  0  0  0
 38 74  1  0  0  0
 38 75  1  0  0  0
 38 76  1  0  0  0
 44 77  1  0  0  0
M  END
> <Clean Energy>
244.684

$$$$
AAA2022_2
  SciTegic12132405553D

 82 87  0  0  0  0            999 V2000
   -7.6295    1.2723   -0.7551 C   0  0
   -7.7345   -0.0590   -0.8397 C   0  0
   -6.6572   -0.9843   -0.3449 C   0  0  1  0  0  0
   -5.2565   -0.2115   -0.4830 C   0  0  2  0  0  0
   -5.2295    1.1534    0.2674 C   0  0  2  0  0  0
   -6.4437    1.9532   -0.1864 C   0  0
   -3.8384    1.9401   -0.0852 C   0  0  2  0  0  0
   -2.6136    1.0275    0.2288 C   0  0  1  0  0  0
   -2.6593   -0.2281   -0.7014 C   0  0
   -3.9561   -0.9864   -0.5246 C   0  0  1  0  0  0
   -3.7163    3.3189    0.7117 C   0  0
   -2.3676    3.9953    0.3318 C   0  0
   -1.1530    3.0861    0.7294 C   0  0  1  0  0  0
   -1.3039    1.8040   -0.0540 C   0  0  1  0  0  0
    0.2796    3.4987    0.0492 C   0  0  2  0  0  0
    1.0648    2.1629    0.3508 C   0  0
   -0.0042    1.0268    0.2473 C   0  0
    1.0612    4.9017    0.4802 C   0  0  1  0  0  0
    2.4455    5.2210   -0.2627 C   0  0  1  0  0  0
    2.8763    6.4776    0.1935 O   0  0
    4.1002    6.9574   -0.1645 C   0  0
    5.0997    6.0615   -0.7411 C   0  0
    4.8646    4.7391   -0.7039 C   0  0
    3.6235    4.2452   -0.0317 C   0  0
    4.3477    8.1623   -0.0477 O   0  0
    6.3589    6.6859   -1.3346 C   0  0
    5.8192    3.7132   -1.2593 C   0  0
    0.2181    6.1505    0.1298 C   0  0
    1.2451    4.8771    1.5630 H   0  0
   -3.7983    2.1590   -1.1606 H   0  0
   -5.3539    0.9425    1.8367 C   0  0
   -2.6338    0.7397    1.2856 H   0  0
   -1.2841    2.1116   -1.1076 H   0  0
    0.0796    3.5256   -1.0298 H   0  0
   -1.1454    2.9896    2.3667 C   0  0
   -0.1581    2.1519    2.9558 O   0  0
   -0.2804    2.1792    4.3344 C   0  0
    0.6524    1.3666    5.1732 C   0  0
   -1.1564    2.8670    4.8714 O   0  0
   -4.4352   -1.0771    0.5848 O   0  0
   -4.0431   -1.8830   -1.1528 H   0  0
   -6.4674    3.1840   -0.1104 O   0  0
    2.2597    5.2842   -1.3436 H   0  0
   -7.1027   -1.3856    1.0030 O   0  0
   -6.6748   -1.8998   -0.9507 H   0  0
   -8.4341    1.8662   -1.1049 H   0  0
   -8.6174   -0.4774   -1.2505 H   0  0
   -2.5876    0.0924   -1.7499 H   0  0
   -1.8180   -0.8881   -0.4629 H   0  0
   -4.5407    3.9780    0.4347 H   0  0
   -3.7495    3.1456    1.7854 H   0  0
   -2.3702    4.1244   -0.7594 H   0  0
   -2.2765    4.9683    0.8158 H   0  0
    1.9847    2.0009   -0.2076 H   0  0
    1.3122    2.2020    1.4072 H   0  0
    0.2011    0.1932   -0.4374 H   0  0
   -0.0830    0.6431    1.2692 H   0  0
    3.4143    3.2402   -0.3723 H   0  0
    3.8164    4.2204    1.0497 H   0  0
    7.0534    5.9525   -1.7530 H   0  0
    6.8537    7.2734   -0.5484 H   0  0
    6.0557    7.4093   -2.1037 H   0  0
    5.4180    2.6983   -1.1252 H   0  0
    6.7884    3.8166   -0.7498 H   0  0
    5.9990    3.9273   -2.3224 H   0  0
    0.7516    7.0532    0.4534 H   0  0
   -0.7378    6.1153    0.6372 H   0  0
    0.0606    6.1890   -0.9568 H   0  0
   -5.3682    1.9135    2.3417 H   0  0
   -4.5102    0.3579    2.2204 H   0  0
   -6.2843    0.4218    2.0687 H   0  0
   -0.9962    4.0048    2.7579 H   0  0
   -2.1100    2.6158    2.7134 H   0  0
    0.4380    1.5023    6.2428 H   0  0
    1.6860    1.6584    4.9374 H   0  0
    0.5550    0.3098    4.8848 H   0  0
   -6.5031   -2.5516    1.5377 C   0  0
   -5.6938   -3.2090    0.8738 O   0  0
   -6.8822   -3.0146    2.9124 C   0  0
   -6.3266   -3.9197    3.1576 H   0  0
   -7.9512   -3.2255    2.9434 H   0  0
   -6.6448   -2.2357    3.6370 H   0  0
  1  2  2  0
  2  3  1  0
  3  4  1  0
  4  5  1  0
  5  6  1  0
  6  1  1  0
  5  7  1  0
  7  8  1  0
  8  9  1  0
  9 10  1  0
 10  4  1  0
  7 11  1  0
 11 12  1  0
 12 13  1  0
 13 14  1  0
 14  8  1  0
 13 15  1  0
 15 16  1  0
 16 17  1  0
 17 14  1  0
 15 18  1  0
 18 19  1  0
 19 20  1  0
 20 21  1  0
 21 22  1  0
 22 23  2  0
 23 24  1  0
 19 24  1  0
 21 25  2  0
 22 26  1  0
 23 27  1  0
 18 28  1  0
 18 29  1  0
  7 30  1  0
  5 31  1  0
  8 32  1  0
 14 33  1  0
 15 34  1  0
 13 35  1  0
 35 36  1  0
 36 37  1  0
 37 38  1  0
 37 39  2  0
 10 40  1  0
  4 40  1  0
 10 41  1  0
  6 42  2  0
 19 43  1  0
  3 44  1  0
  3 45  1  0
  1 46  1  0
  2 47  1  0
  9 48  1  0
  9 49  1  0
 11 50  1  0
 11 51  1  0
 12 52  1  0
 12 53  1  0
 16 54  1  0
 16 55  1  0
 17 56  1  0
 17 57  1  0
 24 58  1  0
 24 59  1  0
 26 60  1  0
 26 61  1  0
 26 62  1  0
 27 63  1  0
 27 64  1  0
 27 65  1  0
 28 66  1  0
 28 67  1  0
 28 68  1  0
 31 69  1  0
 31 70  1  0
 31 71  1  0
 35 72  1  0
 35 73  1  0
 38 74  1  0
 38 75  1  0
 38 76  1  0
 44 77  1  0
 77 78  2  0
 77 79  1  0
 79 80  1  0
 79 81  1  0
 79 82  1  0
M  END
> <Name>
AAA2022_2

> <Clean Energy>
246.313

$$$$
AAA2022_3
  SciTegic12132405553D

 76 80  0  0  0  0            999 V2000
   -7.7008    1.2986   -0.5946 C   0  0
   -7.7498   -0.0268   -0.7562 C   0  0
   -6.5570   -0.9168   -0.5268 C   0  0  1  0  0  0
   -5.2587   -0.1666   -0.3415 C   0  0
   -5.2330    1.2455    0.2287 C   0  0  2  0  0  0
   -6.4872    2.0051   -0.1584 C   0  0
   -3.8545    2.0211   -0.1171 C   0  0  2  0  0  0
   -2.6840    1.0940    0.2445 C   0  0  1  0  0  0
   -2.7831   -0.1326   -0.6832 C   0  0
   -4.1366   -0.8002   -0.7017 C   0  0
   -3.7331    3.4075    0.6570 C   0  0
   -2.3656    4.0441    0.2985 C   0  0
   -1.1755    3.1116    0.7392 C   0  0  1  0  0  0
   -1.3433    1.8225   -0.0240 C   0  0  1  0  0  0
    0.2703    3.4869    0.0686 C   0  0  2  0  0  0
    1.0290    2.1392    0.3973 C   0  0
   -0.0665    1.0164    0.2971 C   0  0
    1.0687    4.8834    0.4893 C   0  0  1  0  0  0
    2.4549    5.1785   -0.2508 C   0  0  1  0  0  0
    2.8951    6.4326    0.2011 O   0  0
    4.1170    6.9045   -0.1613 C   0  0
    5.1072    6.0032   -0.7399 C   0  0
    4.8654    4.6814   -0.6992 C   0  0
    3.6214    4.1933   -0.0191 C   0  0
    4.3708    8.1085   -0.0483 O   0  0
    6.3652    6.6227   -1.3408 C   0  0
    5.8128    3.6525   -1.2595 C   0  0
    0.2497    6.1445    0.1224 C   0  0
    1.2461    4.8663    1.5732 H   0  0
   -3.7848    2.2167   -1.1953 H   0  0
   -5.3721    1.0562    1.7923 C   0  0
   -2.7417    0.8176    1.2995 H   0  0
   -1.3013    2.1166   -1.0805 H   0  0
    0.0805    3.5029   -1.0123 H   0  0
   -1.1932    3.0363    2.3766 C   0  0
   -0.2258    2.1833    2.9817 O   0  0
   -0.3425    2.2213    4.3593 C   0  0
    0.5825    1.3966    5.1979 C   0  0
   -1.2015    2.9300    4.8960 O   0  0
   -4.2132   -1.7826   -1.0908 H   0  0
   -6.5352    3.2354   -0.0684 O   0  0
    2.2703    5.2383   -1.3322 H   0  0
   -6.8416   -1.7303    0.6204 O   0  0
   -6.4602   -1.6517   -1.3373 H   0  0
   -8.5744    1.8654   -0.7910 H   0  0
   -8.6607   -0.4674   -1.0715 H   0  0
   -2.6422    0.2422   -1.7059 H   0  0
   -1.9928   -0.8683   -0.4872 H   0  0
   -4.5428    4.0741    0.3478 H   0  0
   -3.7910    3.2554    1.7334 H   0  0
   -2.3415    4.1524   -0.7945 H   0  0
   -2.2645    5.0229    0.7662 H   0  0
    1.9551    1.9521   -0.1450 H   0  0
    1.2626    2.1908    1.4558 H   0  0
    0.1217    0.1755   -0.3841 H   0  0
   -0.1596    0.6415    1.3212 H   0  0
    3.4008    3.1878   -0.3574 H   0  0
    3.8169    4.1697    1.0618 H   0  0
    7.0563    5.8867   -1.7597 H   0  0
    6.8641    7.2124   -0.5588 H   0  0
    6.0599    7.3442   -2.1112 H   0  0
    5.4086    2.6393   -1.1245 H   0  0
    6.7847    3.7522   -0.7545 H   0  0
    5.9886    3.8672   -2.3234 H   0  0
    0.7967    7.0408    0.4400 H   0  0
   -0.7082    6.1319    0.6254 H   0  0
    0.0981    6.1753   -0.9653 H   0  0
   -5.3978    2.0310    2.2909 H   0  0
   -4.5325    0.4711    2.1832 H   0  0
   -6.3035    0.5303    2.0121 H   0  0
   -1.0267    4.0523    2.7582 H   0  0
   -2.1712    2.6870    2.7148 H   0  0
    0.3675    1.5290    6.2677 H   0  0
    1.6189    1.6835    4.9668 H   0  0
    0.4806    0.3417    4.9035 H   0  0
   -6.9859   -1.1705    1.4100 H   0  0
  1  2  2  0
  2  3  1  0
  3  4  1  0
  4  5  1  0
  5  6  1  0
  6  1  1  0
  5  7  1  0
  7  8  1  0
  8  9  1  0
  9 10  1  0
 10  4  2  0
  7 11  1  0
 11 12  1  0
 12 13  1  0
 13 14  1  0
 14  8  1  0
 13 15  1  0
 15 16  1  0
 16 17  1  0
 17 14  1  0
 15 18  1  0
 18 19  1  0
 19 20  1  0
 20 21  1  0
 21 22  1  0
 22 23  2  0
 23 24  1  0
 19 24  1  0
 21 25  2  0
 22 26  1  0
 23 27  1  0
 18 28  1  0
 18 29  1  0
  7 30  1  0
  5 31  1  0
  8 32  1  0
 14 33  1  0
 15 34  1  0
 13 35  1  0
 35 36  1  0
 36 37  1  0
 37 38  1  0
 37 39  2  0
 10 40  1  0
  6 41  2  0
 19 42  1  0
  3 43  1  0
  3 44  1  0
  1 45  1  0
  2 46  1  0
  9 47  1  0
  9 48  1  0
 11 49  1  0
 11 50  1  0
 12 51  1  0
 12 52  1  0
 16 53  1  0
 16 54  1  0
 17 55  1  0
 17 56  1  0
 24 57  1  0
 24 58  1  0
 26 59  1  0
 26 60  1  0
 26 61  1  0
 27 62  1  0
 27 63  1  0
 27 64  1  0
 28 65  1  0
 28 66  1  0
 28 67  1  0
 31 68  1  0
 31 69  1  0
 31 70  1  0
 35 71  1  0
 35 72  1  0
 38 73  1  0
 38 74  1  0
 38 75  1  0
 43 76  1  0
M  END
> <Name>
AAA2022_3

> <Clean Energy>
194.947

$$$$
TS2019_TS1
  SciTegic12132405553D

 54 54  0  0  0  0            999 V2000
    2.0621   -2.4046    2.8542 C   0  0
    2.3892   -1.7144    4.1760 C   0  0
    3.0352   -0.5481    4.1408 C   0  0
    3.4145    0.0618    2.8771 C   0  0
    3.1257   -0.5380    1.7300 C   0  0
    2.4285   -1.8115    1.7192 C   0  0
    3.5197    0.1003    0.4402 C   0  0
    2.5134    1.1530    0.1002 C   0  0
    2.6283    1.8354   -1.0353 C   0  0
    1.3795   -3.6653    2.7044 O   0  0
    0.9672   -4.3424    3.8923 C   0  0
    2.0390   -2.2828    5.4297 O   0  0
    2.1561   -1.8746    7.1627 Si  0  0
    1.7360   -3.5012    8.1591 C   0  0
    0.9575   -0.4172    7.6201 C   0  0
    3.9142   -1.2048    7.5606 C   0  0
    2.6665   -4.6691    7.7914 C   0  0
    0.3351   -4.0493    7.8444 C   0  0
    1.3314    0.8585    6.8522 C   0  0
   -0.5104   -0.6870    7.2506 C   0  0
    4.0236   -0.9210    9.0687 C   0  0
    5.0491   -2.1620    7.1625 C   0  0
    3.2780   -0.0576    5.0371 H   0  0
    3.9246    0.9912    2.8717 H   0  0
    2.2085   -2.2768    0.7924 H   0  0
    4.4883    0.6102    0.5367 H   0  0
    3.5542   -0.6265   -0.3834 H   0  0
    1.7089    1.3530    0.7626 H   0  0
    3.4332    1.6318   -1.6958 H   0  0
    1.9160    2.5825   -1.2800 H   0  0
    0.4644   -5.2814    3.6222 H   0  0
    0.2708   -3.7044    4.4578 H   0  0
    1.8474   -4.5651    4.5148 H   0  0
    1.8131   -3.2913    9.2351 H   0  0
    1.0383   -0.2178    8.6976 H   0  0
    4.0612   -0.2729    6.9994 H   0  0
    2.3805   -5.5536    8.3772 H   0  0
    3.6931   -4.4176    8.0160 H   0  0
    2.5648   -4.8912    6.7189 H   0  0
    0.1687   -4.9641    8.4300 H   0  0
    0.2670   -4.2834    6.7750 H   0  0
   -0.4208   -3.3241    8.1075 H   0  0
    0.6532    1.6706    7.1481 H   0  0
    1.2315    0.6765    5.7764 H   0  0
    2.3648    1.1454    7.0825 H   0  0
   -1.1164    0.1863    7.5294 H   0  0
   -0.8803   -1.5529    7.7806 H   0  0
   -0.5870   -0.8551    6.1664 H   0  0
    5.0160   -0.5038    9.2884 H   0  0
    3.8885   -1.8585    9.6264 H   0  0
    3.2507   -0.2016    9.3685 H   0  0
    6.0139   -1.6903    7.3948 H   0  0
    4.9911   -2.3681    6.0836 H   0  0
    4.9697   -3.0885    7.7168 H   0  0
  1  2  1  0
  2  3  2  0
  3  4  1  0
  4  5  2  0
  5  6  1  0
  1  6  2  0
  5  7  1  0
  7  8  1  0
  8  9  2  0
  1 10  1  0
 10 11  1  0
  2 12  1  0
 12 13  1  0
 13 14  1  0
 13 15  1  0
 13 16  1  0
 14 17  1  0
 14 18  1  0
 15 19  1  0
 15 20  1  0
 16 21  1  0
 16 22  1  0
  3 23  1  0
  4 24  1  0
  6 25  1  0
  7 26  1  0
  7 27  1  0
  8 28  1  0
  9 29  1  0
  9 30  1  0
 11 31  1  0
 11 32  1  0
 11 33  1  0
 14 34  1  0
 15 35  1  0
 16 36  1  0
 17 37  1  0
 17 38  1  0
 17 39  1  0
 18 40  1  0
 18 41  1  0
 18 42  1  0
 19 43  1  0
 19 44  1  0
 19 45  1  0
 20 46  1  0
 20 47  1  0
 20 48  1  0
 21 49  1  0
 21 50  1  0
 21 51  1  0
 22 52  1  0
 22 53  1  0
 22 54  1  0
M  END
> <Name>
TS2019_TS1

> <Clean Energy>
20.1338005065918

$$$$
TS2019_TS2
  SciTegic12132405553D

 57 57  0  0  0  0            999 V2000
    6.9590    5.1743    1.0073 C   0  0
    7.1148    3.7230    1.4532 C   0  0
    8.3505    3.2474    1.6274 C   0  0
    9.5114    4.0607    1.4060 C   0  0
    9.3963    5.3190    1.0384 C   0  0
    8.0631    5.9066    0.8242 C   0  0
   10.6608    6.1225    0.9071 C   0  0
   10.6406    7.0977   -0.2636 C   0  0
   11.9684    7.8620   -0.2440 C   0  0
    5.7119    5.8737    0.8251 O   0  0
    4.5039    5.1544    1.0902 C   0  0
    5.9929    2.8743    1.7487 O   0  0
    5.7502    1.3291    2.6451 Si  0  0
    4.0559    0.4929    2.1265 C   0  0
    5.7784    1.8706    4.4915 C   0  0
    7.2138    0.0710    2.4834 C   0  0
    4.0171    0.0888    0.6417 C   0  0
    2.8504    1.4293    2.2736 C   0  0
    7.1404    2.5061    4.8311 C   0  0
    4.7412    2.9640    4.8090 C   0  0
    6.9320   -1.1499    3.3729 C   0  0
    7.4770   -0.4270    1.0503 C   0  0
   11.9997    8.7934   -1.3201 O   0  0
    8.4867    2.2792    1.9382 H   0  0
   10.4742    3.6453    1.5673 H   0  0
    7.9679    6.9235    0.5467 H   0  0
   10.7696    6.7234    1.8200 H   0  0
   11.5178    5.4368    0.8337 H   0  0
   10.5331    6.5484   -1.2083 H   0  0
    9.8090    7.8061   -0.1491 H   0  0
   12.0643    8.3984    0.7122 H   0  0
   12.7996    7.1491   -0.3477 H   0  0
    3.6430    5.8226    0.9389 H   0  0
    4.5083    4.7993    2.1341 H   0  0
    4.4269    4.2966    0.4106 H   0  0
    3.9018   -0.4011    2.7487 H   0  0
    5.6128    0.9962    5.1321 H   0  0
    8.1275    0.5629    2.8363 H   0  0
    3.0451   -0.3782    0.4248 H   0  0
    4.8004   -0.6234    0.4250 H   0  0
    4.1432    0.9804    0.0150 H   0  0
    1.9416    0.8900    1.9685 H   0  0
    2.9896    2.3072    1.6282 H   0  0
    2.7420    1.7435    3.3023 H   0  0
    7.1496    2.8056    5.8862 H   0  0
    7.2901    3.3946    4.2032 H   0  0
    7.9480    1.7888    4.6473 H   0  0
    4.8286    3.2495    5.8647 H   0  0
    3.7405    2.5998    4.6250 H   0  0
    4.9367    3.8438    4.1737 H   0  0
    7.7839   -1.8417    3.3179 H   0  0
    6.0237   -1.6569    3.0242 H   0  0
    6.7947   -0.8238    4.4130 H   0  0
    8.3411   -1.1067    1.0617 H   0  0
    7.6922    0.4296    0.3965 H   0  0
    6.6143   -0.9654    0.6776 H   0  0
   11.9110    8.3063   -2.1746 H   0  0
  1  2  1  0
  2  3  2  0
  3  4  1  0
  4  5  2  0
  5  6  1  0
  1  6  2  0
  5  7  1  0
  7  8  1  0
  8  9  1  0
  1 10  1  0
 10 11  1  0
  2 12  1  0
 12 13  1  0
 13 14  1  0
 13 15  1  0
 13 16  1  0
 14 17  1  0
 14 18  1  0
 15 19  1  0
 15 20  1  0
 16 21  1  0
 16 22  1  0
  9 23  1  0
  3 24  1  0
  4 25  1  0
  6 26  1  0
  7 27  1  0
  7 28  1  0
  8 29  1  0
  8 30  1  0
  9 31  1  0
  9 32  1  0
 11 33  1  0
 11 34  1  0
 11 35  1  0
 14 36  1  0
 15 37  1  0
 16 38  1  0
 17 39  1  0
 17 40  1  0
 17 41  1  0
 18 42  1  0
 18 43  1  0
 18 44  1  0
 19 45  1  0
 19 46  1  0
 19 47  1  0
 20 48  1  0
 20 49  1  0
 20 50  1  0
 21 51  1  0
 21 52  1  0
 21 53  1  0
 22 54  1  0
 22 55  1  0
 22 56  1  0
 23 57  1  0
M  END
> <Name>
TS2019_TS2

> <Clean Energy>
17.879

$$$$
TS2019_TS3
  SciTegic12132405553D

 63 63  0  0  0  0            999 V2000
   -4.4045    1.5028    5.6454 C   0  0
   -4.3009    0.8923    7.0399 C   0  0
   -3.3254    0.0160    7.2774 C   0  0
   -2.3820   -0.3629    6.2463 C   0  0
   -2.4609    0.1582    5.0287 C   0  0
   -3.5204    1.1343    4.7191 C   0  0
   -1.4177   -0.2584    4.0151 C   0  0
   -1.9040   -0.2000    2.5585 C   0  0
   -0.7289   -0.6022    1.6621 C   0  0
   -5.3686    2.4895    5.2267 O   0  0
   -6.3037    2.9597    6.2005 C   0  0
   -5.2041    1.2342    8.0876 O   0  0
   -5.3816    0.9254    9.8390 Si  0  0
   -7.2158    1.3694   10.3503 C   0  0
   -4.0755    2.0060   10.7620 C   0  0
   -4.9324   -0.8917   10.3054 C   0  0
   -7.6027    2.8145   10.0064 C   0  0
   -8.2569    0.5311    9.5887 C   0  0
   -4.1803    3.5033   10.4232 C   0  0
   -2.6546    1.5986   10.3389 C   0  0
   -5.7701   -1.9569    9.5795 C   0  0
   -5.1133   -1.0837   11.8216 C   0  0
   -1.1106   -0.5480    0.2936 O   0  0
    0.2383   -0.9624   -0.6466 S   0  0
   -0.1882   -0.8648   -2.3990 C   0  0
    1.3704    0.0023   -0.3491 O   0  0
    0.6760   -2.3740   -0.3054 O   0  0
   -3.2309   -0.4128    8.2266 H   0  0
   -1.6137   -1.0581    6.4675 H   0  0
   -3.5801    1.5682    3.7552 H   0  0
   -0.5738    0.4383    4.1073 H   0  0
   -1.0508   -1.2625    4.2701 H   0  0
   -2.7469   -0.8908    2.4135 H   0  0
   -2.2162    0.8231    2.3089 H   0  0
    0.1040    0.0945    1.8311 H   0  0
   -0.4073   -1.6227    1.9141 H   0  0
   -6.9614    3.7117    5.7423 H   0  0
   -5.7580    3.4174    7.0423 H   0  0
   -6.9090    2.1197    6.5704 H   0  0
   -7.3324    1.2075   11.4314 H   0  0
   -4.1851    1.8584   11.8446 H   0  0
   -3.8823   -1.0644   10.0401 H   0  0
   -8.6427    2.9893   10.3164 H   0  0
   -7.5143    2.9670    8.9238 H   0  0
   -6.9605    3.5103   10.5275 H   0  0
   -9.2636    0.8256    9.9172 H   0  0
   -8.1168   -0.5203    9.7938 H   0  0
   -8.1548    0.7155    8.5098 H   0  0
   -3.3968    4.0505   10.9640 H   0  0
   -5.1455    3.8903   10.7179 H   0  0
   -4.0419    3.6400    9.3393 H   0  0
   -1.9244    2.2126   10.8827 H   0  0
   -2.5369    1.7646    9.2607 H   0  0
   -2.4832    0.5403   10.5679 H   0  0
   -5.4233   -2.9541    9.8856 H   0  0
   -5.6461   -1.8423    8.4932 H   0  0
   -6.8153   -1.8543    9.8420 H   0  0
   -4.8184   -2.1059   12.0960 H   0  0
   -6.1672   -0.9225   12.0870 H   0  0
   -4.4847   -0.3650   12.3639 H   0  0
    0.6905   -1.1311   -3.0046 H   0  0
   -0.5040    0.1604   -2.6417 H   0  0
   -1.0090   -1.5630   -2.6158 H   0  0
  1  2  1  0
  2  3  2  0
  3  4  1  0
  4  5  2  0
  5  6  1  0
  1  6  2  0
  5  7  1  0
  7  8  1  0
  8  9  1  0
  1 10  1  0
 10 11  1  0
  2 12  1  0
 12 13  1  0
 13 14  1  0
 13 15  1  0
 13 16  1  0
 14 17  1  0
 14 18  1  0
 15 19  1  0
 15 20  1  0
 16 21  1  0
 16 22  1  0
  9 23  1  0
 23 24  1  0
 24 25  1  0
 24 26  2  0
 24 27  2  0
  3 28  1  0
  4 29  1  0
  6 30  1  0
  7 31  1  0
  7 32  1  0
  8 33  1  0
  8 34  1  0
  9 35  1  0
  9 36  1  0
 11 37  1  0
 11 38  1  0
 11 39  1  0
 14 40  1  0
 15 41  1  0
 16 42  1  0
 17 43  1  0
 17 44  1  0
 17 45  1  0
 18 46  1  0
 18 47  1  0
 18 48  1  0
 19 49  1  0
 19 50  1  0
 19 51  1  0
 20 52  1  0
 20 53  1  0
 20 54  1  0
 21 55  1  0
 21 56  1  0
 21 57  1  0
 22 58  1  0
 22 59  1  0
 22 60  1  0
 25 61  1  0
 25 62  1  0
 25 63  1  0
M  END
> <Name>
TS2019_TS3

> <Clean Energy>
11.367

$$$$
TS2019_TS4
  SciTegic12132405553D

 58 58  0  0  0  0            999 V2000
   -5.9143    0.9117   -1.4063 C   0  0
   -6.8623    1.1336   -0.2361 C   0  0
   -6.3554    1.5767    0.9120 C   0  0
   -4.9486    1.8536    1.0500 C   0  0
   -4.1567    1.7647   -0.0072 C   0  0
   -4.6576    1.2960   -1.2710 C   0  0
   -2.7336    2.1043    0.0935 C   0  0
   -1.9539    0.7980    0.0314 C   0  0
   -0.4727    1.1238    0.0721 C   0  0
   -6.2327    0.3670   -2.6786 O   0  0
   -7.3845   -0.4527   -2.7481 C   0  0
   -8.2783    1.1047   -0.4248 O   0  0
   -9.4660    2.4645   -0.0913 Si  0  0
  -11.3129    1.8298   -0.0662 C   0  0
   -9.1738    3.6920   -1.5689 C   0  0
   -9.0612    3.5373    1.4807 C   0  0
  -11.6733    0.9999   -1.3053 C   0  0
  -11.6114    0.8920    1.1086 C   0  0
   -9.2844    3.0135   -2.9507 C   0  0
   -7.7464    4.2781   -1.5269 C   0  0
   -9.2072    2.8045    2.8318 C   0  0
   -9.9944    4.7587    1.5344 C   0  0
    0.2867   -0.0820    0.0114 N   0  0
    1.4615   -0.0268    0.0041 N   0  3
    2.6375    0.0276   -0.0034 N   0  5
   -6.9802    1.7576    1.7152 H   0  0
   -4.5593    2.1738    1.9826 H   0  0
   -3.9949    1.1994   -2.0896 H   0  0
   -2.4359    2.6952   -0.7838 H   0  0
   -2.5153    2.6282    1.0335 H   0  0
   -2.2293    0.1634    0.8857 H   0  0
   -2.1825    0.2715   -0.9062 H   0  0
   -0.2131    1.7612   -0.7863 H   0  0
   -0.2335    1.6632    0.9969 H   0  0
   -7.5885   -0.6955   -3.7980 H   0  0
   -8.2538    0.0195   -2.3059 H   0  0
   -7.1447   -1.3830   -2.2045 H   0  0
  -11.9798    2.7035    0.0021 H   0  0
   -9.8923    4.5183   -1.4951 H   0  0
   -8.0239    3.8915    1.3890 H   0  0
  -12.7234    0.6834   -1.2298 H   0  0
  -11.0254    0.1135   -1.3482 H   0  0
  -11.5491    1.5871   -2.2028 H   0  0
  -12.6675    0.5877    1.0593 H   0  0
  -11.4415    1.4059    2.0459 H   0  0
  -10.9702    0.0075    1.0484 H   0  0
   -9.0953    3.7573   -3.7355 H   0  0
  -10.2692    2.5953   -3.0939 H   0  0
   -8.5324    2.2150   -3.0190 H   0  0
   -7.6214    4.9776   -2.3657 H   0  0
   -7.0141    3.4736   -1.6178 H   0  0
   -7.5889    4.8124   -0.5836 H   0  0
   -8.9223    3.4911    3.6412 H   0  0
   -8.5559    1.9248    2.8533 H   0  0
  -10.2368    2.4991    2.9767 H   0  0
   -9.7215    5.3804    2.3997 H   0  0
  -11.0330    4.4252    1.6340 H   0  0
   -9.8839    5.3507    0.6158 H   0  0
  1  2  1  0
  2  3  2  0
  3  4  1  0
  4  5  2  0
  5  6  1  0
  1  6  2  0
  5  7  1  0
  7  8  1  0
  8  9  1  0
  1 10  1  0
 10 11  1  0
  2 12  1  0
 12 13  1  0
 13 14  1  0
 13 15  1  0
 13 16  1  0
 14 17  1  0
 14 18  1  0
 15 19  1  0
 15 20  1  0
 16 21  1  0
 16 22  1  0
  9 23  1  0
 23 24  2  0
 24 25  2  0
  3 26  1  0
  4 27  1  0
  6 28  1  0
  7 29  1  0
  7 30  1  0
  8 31  1  0
  8 32  1  0
  9 33  1  0
  9 34  1  0
 11 35  1  0
 11 36  1  0
 11 37  1  0
 14 38  1  0
 15 39  1  0
 16 40  1  0
 17 41  1  0
 17 42  1  0
 17 43  1  0
 18 44  1  0
 18 45  1  0
 18 46  1  0
 19 47  1  0
 19 48  1  0
 19 49  1  0
 20 50  1  0
 20 51  1  0
 20 52  1  0
 21 53  1  0
 21 54  1  0
 21 55  1  0
 22 56  1  0
 22 57  1  0
 22 58  1  0
M  CHG  2  24   1  25  -1
M  END
> <Name>
TS2019_TS4

> <Clean Energy>
58.3583

$$$$
TS2019_TS5
  SciTegic12132405553D

 72 74  0  0  0  0            999 V2000
   -3.0988   -6.3648   -0.8332 C   0  0
   -3.2781   -7.3937   -1.9465 C   0  0
   -4.2063   -7.1676   -2.8753 C   0  0
   -5.0369   -5.9871   -2.8404 C   0  0
   -4.8996   -5.0854   -1.8804 C   0  0
   -3.8822   -5.2841   -0.8286 C   0  0
   -5.7934   -3.8658   -1.9447 C   0  0
   -5.9750   -3.1273   -0.6132 C   0  0
   -6.8768   -1.9118   -0.8942 C   0  0
   -2.1198   -6.4305    0.2236 O   0  0
   -1.2192   -7.5426    0.2249 C   0  0
   -2.4884   -8.5788   -2.0274 O   0  0
   -2.2448   -9.9291   -3.1762 Si  0  0
   -1.3551  -11.3861   -2.2236 C   0  0
   -1.1955   -9.2639   -4.6538 C   0  0
   -3.9031  -10.5106   -3.9750 C   0  0
   -2.1773  -11.8940   -1.0268 C   0  0
   -0.0242  -10.9632   -1.5868 C   0  0
   -1.9517   -8.1379   -5.3778 C   0  0
    0.1373   -8.6331   -4.2148 C   0  0
   -3.6192  -11.6723   -4.9429 C   0  0
   -4.9652  -10.9716   -2.9632 C   0  0
   -7.0914   -1.1236    0.2850 N   0  0
   -8.2760   -0.5776    0.6473 N   0  0
   -8.1154    0.1092    1.6533 N   0  0
   -6.7605    0.0521    2.0245 C   0  0
   -6.1407   -0.7221    1.1609 C   0  0
   -6.1591    0.7434    3.1628 C   0  0
   -4.7323    0.5863    3.4721 C   0  0
   -6.9204    1.5276    3.9253 C   0  0
   -6.3352    2.2308    5.0658 C   0  0
   -5.0421    2.0878    5.3461 C   0  0
   -4.2030    1.2257    4.5116 C   0  0
   -4.3447   -7.8540   -3.6488 H   0  0
   -5.7631   -5.8363   -3.5974 H   0  0
   -3.7512   -4.5614   -0.0664 H   0  0
   -5.3389   -3.1668   -2.6595 H   0  0
   -6.7643   -4.1658   -2.3627 H   0  0
   -6.4459   -3.7881    0.1283 H   0  0
   -4.9976   -2.7885   -0.2416 H   0  0
   -6.3650   -1.2880   -1.6399 H   0  0
   -7.8443   -2.2401   -1.2990 H   0  0
   -0.5272   -7.4517    1.0741 H   0  0
   -0.6429   -7.5495   -0.7152 H   0  0
   -1.7863   -8.4803    0.3131 H   0  0
   -1.1776  -12.2134   -2.9256 H   0  0
   -1.0070  -10.0834   -5.3601 H   0  0
   -4.3282   -9.6685   -4.5342 H   0  0
   -1.6272  -12.7081   -0.5341 H   0  0
   -3.1335  -12.2709   -1.3597 H   0  0
   -2.3305  -11.0713   -0.3142 H   0  0
    0.4138  -11.8276   -1.0677 H   0  0
   -0.2059  -10.1573   -0.8647 H   0  0
    0.6659  -10.6249   -2.3467 H   0  0
   -1.3482   -7.7809   -6.2228 H   0  0
   -2.1226   -7.3098   -4.6785 H   0  0
   -2.9142   -8.5095   -5.7486 H   0  0
    0.6675   -8.2589   -5.1006 H   0  0
    0.7570   -9.3672   -3.7193 H   0  0
   -0.0663   -7.7965   -3.5285 H   0  0
   -4.5564  -11.9764   -5.4295 H   0  0
   -3.2047  -12.5215   -4.3827 H   0  0
   -2.8994  -11.3505   -5.7071 H   0  0
   -5.8785  -11.2524   -3.5066 H   0  0
   -5.1894  -10.1499   -2.2681 H   0  0
   -4.6085  -11.8316   -2.4111 H   0  0
   -5.1091   -0.9687    1.1469 H   0  0
   -4.1211   -0.0373    2.8701 H   0  0
   -7.9500    1.6429    3.7016 H   0  0
   -6.9427    2.8563    5.6699 H   0  0
   -4.6190    2.5984    6.1734 H   0  0
   -3.1730    1.1115    4.7360 H   0  0
  1  2  1  0
  2  3  2  0
  3  4  1  0
  4  5  2  0
  5  6  1  0
  1  6  2  0
  5  7  1  0
  7  8  1  0
  8  9  1  0
  1 10  1  0
 10 11  1  0
  2 12  1  0
 12 13  1  0
 13 14  1  0
 13 15  1  0
 13 16  1  0
 14 17  1  0
 14 18  1  0
 15 19  1  0
 15 20  1  0
 16 21  1  0
 16 22  1  0
  9 23  1  0
 23 24  1  0
 25 26  1  0
 27 23  1  0
 26 27  2  0
 24 25  2  0
 26 28  1  0
 30 31  1  0
 31 32  2  0
 32 33  1  0
 29 33  2  0
 29 28  1  0
 28 30  2  0
  3 34  1  0
  4 35  1  0
  6 36  1  0
  7 37  1  0
  7 38  1  0
  8 39  1  0
  8 40  1  0
  9 41  1  0
  9 42  1  0
 11 43  1  0
 11 44  1  0
 11 45  1  0
 14 46  1  0
 15 47  1  0
 16 48  1  0
 17 49  1  0
 17 50  1  0
 17 51  1  0
 18 52  1  0
 18 53  1  0
 18 54  1  0
 19 55  1  0
 19 56  1  0
 19 57  1  0
 20 58  1  0
 20 59  1  0
 20 60  1  0
 21 61  1  0
 21 62  1  0
 21 63  1  0
 22 64  1  0
 22 65  1  0
 22 66  1  0
 27 67  1  0
 29 68  1  0
 30 69  1  0
 31 70  1  0
 32 71  1  0
 33 72  1  0
M  END
> <Name>
TS2019_TS5

> <Clean Energy>
38.3085

$$$$
TS2019_TS6
  SciTegic12132405553D

 42 44  0  0  0  0            999 V2000
    3.3784    1.9685   -1.1006 C   0  0
    4.7186    1.4118   -0.8412 C   0  0
    4.9344    0.6267    0.2104 C   0  0
    3.8452    0.3013    1.1139 C   0  0
    2.6298    0.7903    0.8951 C   0  0
    2.3748    1.6632   -0.2537 C   0  0
    1.5150    0.4117    1.8168 C   0  0
    1.1300    1.5865    2.7314 C   0  0
   -0.0215    1.0808    3.6174 C   0  0
    3.2354    2.8100   -2.2605 O   0  0
    1.9276    3.3528   -2.5110 C   0  0
    5.7749    1.7030   -1.7021 O   0  0
   -0.5003    2.0871    4.5202 N   0  0
   -0.6026    1.9299    5.8610 N   0  0
   -1.2077    2.8863    6.3378 N   0  0
   -1.5531    3.7640    5.2953 C   0  0
   -1.0957    3.2525    4.1724 C   0  0
   -2.3124    5.0078    5.4536 C   0  0
   -2.5874    5.8763    4.3018 C   0  0
   -2.7659    5.3435    6.6595 C   0  0
   -3.5397    6.5722    6.8383 C   0  0
   -3.7897    7.3593    5.7941 C   0  0
   -3.2898    6.9959    4.4670 C   0  0
    5.9025    0.2308    0.3848 H   0  0
    4.0168   -0.3366    1.9432 H   0  0
    1.3944    2.0319   -0.3929 H   0  0
    0.6207    0.1739    1.2251 H   0  0
    1.8205   -0.4371    2.4438 H   0  0
    1.9871    1.8820    3.3529 H   0  0
    0.7968    2.4422    2.1260 H   0  0
   -0.8426    0.7944    2.9467 H   0  0
    0.3160    0.2068    4.1914 H   0  0
    1.9587    3.9690   -3.4212 H   0  0
    1.6178    3.9760   -1.6592 H   0  0
    1.2072    2.5332   -2.6501 H   0  0
    5.4620    2.2890   -2.4321 H   0  0
   -1.1986    3.6519    3.1951 H   0  0
   -2.2281    5.6171    3.3392 H   0  0
   -2.5721    4.7149    7.4914 H   0  0
   -3.9039    6.8345    7.7994 H   0  0
   -4.3521    8.2493    5.9240 H   0  0
   -3.4879    7.6243    3.6363 H   0  0
  1  2  1  0
  2  3  2  0
  3  4  1  0
  4  5  2  0
  5  6  1  0
  1  6  2  0
  5  7  1  0
  7  8  1  0
  8  9  1  0
  1 10  1  0
 10 11  1  0
  2 12  1  0
  9 13  1  0
 13 14  1  0
 15 16  1  0
 17 13  1  0
 16 17  2  0
 14 15  2  0
 16 18  1  0
 20 21  1  0
 21 22  2  0
 22 23  1  0
 19 23  2  0
 19 18  1  0
 18 20  2  0
  3 24  1  0
  4 25  1  0
  6 26  1  0
  7 27  1  0
  7 28  1  0
  8 29  1  0
  8 30  1  0
  9 31  1  0
  9 32  1  0
 11 33  1  0
 11 34  1  0
 11 35  1  0
 12 36  1  0
 17 37  1  0
 19 38  1  0
 20 39  1  0
 21 40  1  0
 22 41  1  0
 23 42  1  0
M  END
> <Name>
TS2019_TS6

> <Clean Energy>
36.7926

$$$$
TS2019_TS7
  SciTegic12132405553D

 56 59  0  0  0  0            999 V2000
   -3.3669   -6.4692   -1.7038 C   0  0
   -4.5876   -7.3260   -1.3529 C   0  0
   -5.5409   -6.7920   -0.5900 C   0  0
   -5.4484   -5.4318   -0.1023 C   0  0
   -4.3997   -4.6824   -0.4060 C   0  0
   -3.3221   -5.2065   -1.2254 C   0  0
   -4.3266   -3.2736    0.0846 C   0  0
   -3.8759   -3.2715    1.5498 C   0  0
   -3.8219   -1.8169    2.0258 C   0  0
   -2.3175   -7.0134   -2.5172 O   0  0
   -1.1861   -6.1724   -2.8251 C   0  0
   -4.8641   -8.6973   -1.7636 O   0  0
   -3.4201   -1.7802    3.3935 N   0  0
   -4.1882   -2.1317    4.4498 N   0  0
   -3.5604   -1.9338    5.4881 N   0  0
   -2.2922   -1.4200    5.1550 C   0  0
   -2.2299   -1.3375    3.8441 C   0  0
   -1.2463   -1.0433    6.1166 C   0  0
   -1.5129   -1.1869    7.5482 C   0  0
   -0.0667   -0.5718    5.7058 C   0  0
    0.9546   -0.2014    6.6869 C   0  0
    0.7082   -0.3327    7.9885 C   0  0
   -0.5835   -0.8482    8.4392 C   0  0
   -4.0140   -9.4806   -2.5919 C   0  0
   -2.9468   -9.0829   -3.0485 O   0  0
   -4.4458  -10.8308   -2.9313 C   0  0
   -6.1130  -12.5729   -2.7256 C   0  0
   -5.2828  -13.4139   -3.5903 C   0  0
   -4.1276  -12.9476   -4.0619 C   0  0
   -3.6897  -11.5951   -3.7167 C   0  0
   -5.7136  -11.3423   -2.4120 C   0  0
   -5.7030  -14.7029   -3.9203 N   0  3
   -5.0388  -15.3788   -4.6158 O   0  0
   -6.8521  -15.1644   -3.4514 O   0  5
   -6.3913   -7.3746   -0.3419 H   0  0
   -6.2281   -5.0307    0.4944 H   0  0
   -2.5138   -4.5612   -1.4285 H   0  0
   -3.5986   -2.7012   -0.5069 H   0  0
   -5.3257   -2.8175    0.0570 H   0  0
   -4.5954   -3.8339    2.1614 H   0  0
   -2.8808   -3.7302    1.6354 H   0  0
   -3.1062   -1.2579    1.4071 H   0  0
   -4.8329   -1.3975    1.9290 H   0  0
   -0.4775   -6.7325   -3.4517 H   0  0
   -0.6869   -5.8681   -1.8931 H   0  0
   -1.5268   -5.2791   -3.3697 H   0  0
   -1.4176   -0.9867    3.2596 H   0  0
   -2.4496   -1.5601    7.8763 H   0  0
    0.1376   -0.4625    4.6722 H   0  0
    1.8916    0.1726    6.3604 H   0  0
    1.4489   -0.0633    8.6983 H   0  0
   -0.7803   -0.9522    9.4760 H   0  0
   -7.0325  -12.9433   -2.3494 H   0  0
   -3.5256  -13.5551   -4.6886 H   0  0
   -2.7713  -11.2232   -4.0943 H   0  0
   -6.3150  -10.7327   -1.7863 H   0  0
  1  2  1  0
  2  3  2  0
  3  4  1  0
  4  5  2  0
  5  6  1  0
  1  6  2  0
  5  7  1  0
  7  8  1  0
  8  9  1  0
  1 10  1  0
 10 11  1  0
  2 12  1  0
  9 13  1  0
 13 14  1  0
 15 16  1  0
 17 13  1  0
 16 17  2  0
 14 15  2  0
 16 18  1  0
 20 21  1  0
 21 22  2  0
 22 23  1  0
 19 23  2  0
 19 18  1  0
 18 20  2  0
 12 24  1  0
 24 25  2  0
 24 26  1  0
 27 28  1  0
 28 29  2  0
 29 30  1  0
 27 31  2  0
 30 26  2  0
 26 31  1  0
 28 32  1  0
 32 34  1  0
 32 33  2  0
  3 35  1  0
  4 36  1  0
  6 37  1  0
  7 38  1  0
  7 39  1  0
  8 40  1  0
  8 41  1  0
  9 42  1  0
  9 43  1  0
 11 44  1  0
 11 45  1  0
 11 46  1  0
 17 47  1  0
 19 48  1  0
 20 49  1  0
 21 50  1  0
 22 51  1  0
 23 52  1  0
 27 53  1  0
 29 54  1  0
 30 55  1  0
 31 56  1  0
M  CHG  2  32   1  34  -1
M  END
> <Name>
TS2019_TS7

> <Clean Energy>
42.5107

$$$$
TS2019_TS8
  SciTegic12132405553D

 54 57  0  0  0  0            999 V2000
   -3.3306   -6.5417   -1.6920 C   0  0
   -4.4922   -7.4714   -1.3266 C   0  0
   -5.4680   -6.9959   -0.5534 C   0  0
   -5.4540   -5.6319   -0.0682 C   0  0
   -4.4571   -4.8198   -0.3845 C   0  0
   -3.3583   -5.2778   -1.2154 C   0  0
   -4.4660   -3.4088    0.1041 C   0  0
   -3.9753   -3.3746    1.5559 C   0  0
   -4.0055   -1.9187    2.0306 C   0  0
   -2.2585   -7.0218   -2.5160 O   0  0
   -1.1841   -6.1135   -2.8367 C   0  0
   -4.6880   -8.8579   -1.7322 O   0  0
   -3.5657   -1.8533    3.3856 N   0  0
   -4.3092   -2.1681    4.4708 N   0  0
   -3.6519   -1.9507    5.4866 N   0  0
   -2.3873   -1.4608    5.1069 C   0  0
   -2.3588   -1.4132    3.7931 C   0  0
   -1.3127   -1.0713    6.0308 C   0  0
   -1.5436   -1.1735    7.4721 C   0  0
   -0.1389   -0.6249    5.5774 C   0  0
    0.9115   -0.2408    6.5218 C   0  0
    0.6975   -0.3344    7.8324 C   0  0
   -0.5878   -0.8223    8.3296 C   0  0
   -3.8014   -9.5885   -2.5709 C   0  0
   -2.7684   -9.1250   -3.0435 O   0  0
   -4.1476  -10.9653   -2.9024 C   0  0
   -3.5876  -13.0028   -4.0837 C   0  0
   -4.8116  -13.6017   -3.5488 C   0  0
   -5.6086  -12.8904   -2.7538 C   0  0
   -5.2613  -11.5093   -2.4154 C   0  0
   -3.2714  -11.7468   -3.7751 C   0  0
   -5.2223  -15.2310   -3.9493 Cl  0  0
   -6.2779   -7.6295   -0.2950 H   0  0
   -6.2501   -5.2786    0.5370 H   0  0
   -2.5937   -4.5843   -1.4280 H   0  0
   -3.7935   -2.7900   -0.5061 H   0  0
   -5.4937   -3.0204    0.1037 H   0  0
   -4.6376   -3.9833    2.1874 H   0  0
   -2.9495   -3.7652    1.6128 H   0  0
   -3.3439   -1.3189    1.3904 H   0  0
   -5.0438   -1.5657    1.9624 H   0  0
   -0.4491   -6.6301   -3.4702 H   0  0
   -0.6947   -5.7777   -1.9103 H   0  0
   -1.5847   -5.2436   -3.3785 H   0  0
   -1.5586   -1.0871    3.1785 H   0  0
   -2.4757   -1.5266    7.8340 H   0  0
    0.0398   -0.5456    4.5363 H   0  0
    1.8440    0.1131    6.1615 H   0  0
    1.4592   -0.0551    8.5155 H   0  0
   -0.7589   -0.8962    9.3736 H   0  0
   -2.9530  -13.5692   -4.7172 H   0  0
   -6.4954  -13.3244   -2.3666 H   0  0
   -5.8972  -10.9427   -1.7839 H   0  0
   -2.3852  -11.3124   -4.1629 H   0  0
  1  2  1  0
  2  3  2  0
  3  4  1  0
  4  5  2  0
  5  6  1  0
  1  6  2  0
  5  7  1  0
  7  8  1  0
  8  9  1  0
  1 10  1  0
 10 11  1  0
  2 12  1  0
  9 13  1  0
 13 14  1  0
 15 16  1  0
 17 13  1  0
 16 17  2  0
 14 15  2  0
 16 18  1  0
 20 21  1  0
 21 22  2  0
 22 23  1  0
 19 23  2  0
 19 18  1  0
 18 20  2  0
 12 24  1  0
 24 25  2  0
 24 26  1  0
 27 28  1  0
 28 29  2  0
 29 30  1  0
 27 31  2  0
 30 26  2  0
 26 31  1  0
 28 32  1  0
  3 33  1  0
  4 34  1  0
  6 35  1  0
  7 36  1  0
  7 37  1  0
  8 38  1  0
  8 39  1  0
  9 40  1  0
  9 41  1  0
 11 42  1  0
 11 43  1  0
 11 44  1  0
 17 45  1  0
 19 46  1  0
 20 47  1  0
 21 48  1  0
 22 49  1  0
 23 50  1  0
 27 51  1  0
 29 52  1  0
 30 53  1  0
 31 54  1  0
M  END
> <Name>
TS2019_TS8

> <Clean Energy>
43.1913

$$$$
TS2019_TS9
  SciTegic12132405553D

 47 49  0  0  0  0            999 V2000
   -2.1345   -9.1622   -0.2024 C   0  0
   -1.3252   -8.5753   -1.3638 C   0  0
   -0.0165   -8.3879   -1.1960 C   0  0
    0.6448   -8.7293    0.0452 C   0  0
   -0.0455   -9.2404    1.0520 C   0  0
   -1.4756   -9.4658    0.9373 C   0  0
    0.6556   -9.5960    2.3194 C   0  0
    0.5016   -8.4318    3.3029 C   0  0
    1.2173   -8.8022    4.6052 C   0  0
   -3.5466   -9.3724   -0.3451 O   0  0
   -4.2710   -9.9253    0.7737 C   0  0
   -1.8101   -8.1808   -2.6813 O   0  0
    1.0807   -7.7265    5.5325 N   0  0
    1.9525   -6.7040    5.6867 N   0  0
    1.5575   -5.9700    6.5903 N   0  0
    0.3532   -6.4929    7.0997 C   0  0
    0.0775   -7.5855    6.4220 C   0  0
   -0.4324   -5.9082    8.1954 C   0  0
    0.0499   -4.6875    8.8422 C   0  0
   -1.5701   -6.4723    8.6083 C   0  0
   -2.3298   -5.8684    9.7041 C   0  0
   -1.8876   -4.7581   10.2904 C   0  0
   -0.6417   -4.1403    9.8393 C   0  0
   -3.1615   -8.2892   -3.1119 C   0  0
   -4.0692   -8.7313   -2.4144 O   0  0
   -3.4945   -7.8431   -4.5028 C   0  0
    0.5542   -7.9829   -1.9925 H   0  0
    1.6886   -8.5733    0.1480 H   0  0
   -1.9684   -9.8730    1.7756 H   0  0
    0.1838  -10.4760    2.7780 H   0  0
    1.7273   -9.7518    2.1340 H   0  0
    0.9519   -7.5242    2.8772 H   0  0
   -0.5647   -8.2547    3.5035 H   0  0
    0.7472   -9.7085    5.0115 H   0  0
    2.2794   -8.9732    4.3813 H   0  0
   -5.3326  -10.0235    0.5060 H   0  0
   -4.1746   -9.2574    1.6428 H   0  0
   -3.8649  -10.9168    1.0236 H   0  0
   -0.7560   -8.2287    6.5498 H   0  0
    0.9537   -4.2388    8.5161 H   0  0
   -1.9290   -7.3564    8.1483 H   0  0
   -3.2336   -6.3162   10.0316 H   0  0
   -2.4388   -4.3220   11.0846 H   0  0
   -0.2888   -3.2561   10.3065 H   0  0
   -3.8867   -8.7042   -5.0635 H   0  0
   -2.6084   -7.4260   -5.0032 H   0  0
   -4.3086   -7.1056   -4.4564 H   0  0
  1  2  1  0
  2  3  2  0
  3  4  1  0
  4  5  2  0
  5  6  1  0
  1  6  2  0
  5  7  1  0
  7  8  1  0
  8  9  1  0
  1 10  1  0
 10 11  1  0
  2 12  1  0
  9 13  1  0
 13 14  1  0
 15 16  1  0
 17 13  1  0
 16 17  2  0
 14 15  2  0
 16 18  1  0
 20 21  1  0
 21 22  2  0
 22 23  1  0
 19 23  2  0
 19 18  1  0
 18 20  2  0
 12 24  1  0
 24 25  2  0
 24 26  1  0
  3 27  1  0
  4 28  1  0
  6 29  1  0
  7 30  1  0
  7 31  1  0
  8 32  1  0
  8 33  1  0
  9 34  1  0
  9 35  1  0
 11 36  1  0
 11 37  1  0
 11 38  1  0
 17 39  1  0
 19 40  1  0
 20 41  1  0
 21 42  1  0
 22 43  1  0
 23 44  1  0
 26 45  1  0
 26 46  1  0
 26 47  1  0
M  END
> <Name>
TS2019_TS9

> <Clean Energy>
57.6925

$$$$
TS2019_TS10
  SciTegic12132405553D

 54 57  0  0  0  0            999 V2000
   -3.3345   -6.5214   -1.6921 C   0  0
   -4.4926   -7.4585   -1.3345 C   0  0
   -5.4812   -6.9868   -0.5756 C   0  0
   -5.4829   -5.6209   -0.0963 C   0  0
   -4.4884   -4.8029   -0.4041 C   0  0
   -3.3772   -5.2556   -1.2215 C   0  0
   -4.5112   -3.3924    0.0840 C   0  0
   -4.0068   -3.3607    1.5307 C   0  0
   -4.0448   -1.9103    2.0199 C   0  0
   -2.2501   -6.9967   -2.5026 O   0  0
   -1.1797   -6.0812   -2.8163 C   0  0
   -4.6713   -8.8493   -1.7319 O   0  0
   -3.5910   -1.8608    3.3708 N   0  0
   -4.3101   -2.2261    4.4565 N   0  0
   -3.6425   -2.0244    5.4687 N   0  0
   -2.3956   -1.4935    5.0858 C   0  0
   -2.3887   -1.4044    3.7738 C   0  0
   -1.3153   -1.1099    6.0053 C   0  0
   -1.5195   -1.2680    7.4456 C   0  0
   -0.1602   -0.6199    5.5492 C   0  0
    0.8967   -0.2437    6.4896 C   0  0
    0.7071   -0.3884    7.7993 C   0  0
   -0.5577   -0.9244    8.2995 C   0  0
   -3.7673   -9.5791   -2.5520 C   0  0
   -2.7321   -9.1106   -3.0150 O   0  0
   -4.0953  -10.9630   -2.8719 C   0  0
   -3.4982  -13.0093   -4.0191 C   0  0
   -4.7233  -13.6143   -3.4931 C   0  0
   -5.5384  -12.9010   -2.7183 C   0  0
   -5.2099  -11.5123   -2.3931 C   0  0
   -3.1993  -11.7462   -3.7226 C   0  0
   -6.2886   -7.6257   -0.3224 H   0  0
   -6.2875   -5.2715    0.4999 H   0  0
   -2.6156   -4.5571   -1.4287 H   0  0
   -3.8495   -2.7649   -0.5292 H   0  0
   -5.5431   -3.0152    0.0932 H   0  0
   -4.6566   -3.9806    2.1643 H   0  0
   -2.9768   -3.7420    1.5746 H   0  0
   -3.3953   -1.2966    1.3802 H   0  0
   -5.0869   -1.5660    1.9671 H   0  0
   -0.4341   -6.5948   -3.4397 H   0  0
   -0.7028   -5.7373   -1.8864 H   0  0
   -1.5816   -5.2172   -3.3663 H   0  0
   -1.6053   -1.0422    3.1577 H   0  0
   -2.4366   -1.6562    7.8096 H   0  0
   -0.0010   -0.5001    4.5088 H   0  0
    1.8143    0.1451    6.1272 H   0  0
    1.4735   -0.1150    8.4795 H   0  0
   -0.7093   -1.0393    9.3428 H   0  0
   -2.8490  -13.5770   -4.6364 H   0  0
   -4.9616  -14.6204   -3.7292 H   0  0
   -6.4259  -13.3391   -2.3374 H   0  0
   -5.8599  -10.9445   -1.7772 H   0  0
   -2.3123  -11.3075   -4.1037 H   0  0
  1  2  1  0
  2  3  2  0
  3  4  1  0
  4  5  2  0
  5  6  1  0
  1  6  2  0
  5  7  1  0
  7  8  1  0
  8  9  1  0
  1 10  1  0
 10 11  1  0
  2 12  1  0
  9 13  1  0
 13 14  1  0
 15 16  1  0
 17 13  1  0
 16 17  2  0
 14 15  2  0
 16 18  1  0
 20 21  1  0
 21 22  2  0
 22 23  1  0
 19 23  2  0
 19 18  1  0
 18 20  2  0
 12 24  1  0
 24 25  2  0
 24 26  1  0
 27 28  1  0
 28 29  2  0
 29 30  1  0
 27 31  2  0
 30 26  2  0
 26 31  1  0
  3 32  1  0
  4 33  1  0
  6 34  1  0
  7 35  1  0
  7 36  1  0
  8 37  1  0
  8 38  1  0
  9 39  1  0
  9 40  1  0
 11 41  1  0
 11 42  1  0
 11 43  1  0
 17 44  1  0
 19 45  1  0
 20 46  1  0
 21 47  1  0
 22 48  1  0
 23 49  1  0
 27 50  1  0
 28 51  1  0
 29 52  1  0
 30 53  1  0
 31 54  1  0
M  END
> <Name>
TS2019_TS10

> <Clean Energy>
43.1599

$$$$
TS2019_TS11
  SciTegic12132405553D

 57 60  0  0  0  0            999 V2000
   -3.3660   -6.5092   -1.6734 C   0  0
   -4.5939   -7.3468   -1.3022 C   0  0
   -5.5129   -6.8069   -0.5019 C   0  0
   -5.3801   -5.4546    0.0021 C   0  0
   -4.3272   -4.7202   -0.3237 C   0  0
   -3.2830   -5.2547   -1.1789 C   0  0
   -4.2175   -3.3124    0.1674 C   0  0
   -3.8051   -3.2957    1.6443 C   0  0
   -3.7283   -1.8274    2.0779 C   0  0
   -2.3498   -7.0616   -2.5226 O   0  0
   -1.2101   -6.2389   -2.8490 C   0  0
   -4.9150   -8.7023   -1.7364 O   0  0
   -3.3604   -1.7406    3.4530 N   0  0
   -4.1877   -1.9420    4.5043 N   0  0
   -3.5816   -1.6995    5.5462 N   0  0
   -2.2680   -1.3091    5.2210 C   0  0
   -2.1558   -1.3483    3.9115 C   0  0
   -1.2306   -0.9185    6.1867 C   0  0
   -1.5581   -0.8992    7.6128 C   0  0
   -0.0043   -0.5771    5.7835 C   0  0
    1.0069   -0.1870    6.7672 C   0  0
    0.7050   -0.1695    8.0636 C   0  0
   -0.6378   -0.5418    8.5060 C   0  0
   -4.1093   -9.4830   -2.6119 C   0  0
   -3.0455   -9.0992   -3.0873 O   0  0
   -4.5911  -10.8063   -2.9891 C   0  0
   -6.3065  -12.5045   -2.8095 C   0  0
   -5.5274  -13.3302   -3.7307 C   0  0
   -4.3716  -12.8820   -4.2144 C   0  0
   -3.8809  -11.5600   -3.8264 C   0  0
   -5.8604  -11.3010   -2.4555 C   0  0
   -6.0306  -14.6797   -4.1321 C   0  0
   -6.3688   -7.3755   -0.2403 H   0  0
   -6.1370   -5.0459    0.6226 H   0  0
   -2.4682   -4.6225   -1.3960 H   0  0
   -3.4628   -2.7667   -0.4157 H   0  0
   -5.2018   -2.8277    0.1112 H   0  0
   -4.5554   -3.8238    2.2497 H   0  0
   -2.8246   -3.7769    1.7670 H   0  0
   -2.9826   -1.3103    1.4582 H   0  0
   -4.7253   -1.3871    1.9380 H   0  0
   -0.5303   -6.8037   -3.5027 H   0  0
   -0.6799   -5.9589   -1.9266 H   0  0
   -1.5470   -5.3310   -3.3711 H   0  0
   -1.3016   -1.1060    3.3318 H   0  0
   -2.5319   -1.1680    7.9349 H   0  0
    0.2443   -0.5856    4.7539 H   0  0
    1.9810    0.0831    6.4467 H   0  0
    1.4385    0.1144    8.7752 H   0  0
   -0.8789   -0.5268    9.5386 H   0  0
   -7.2266  -12.8642   -2.4247 H   0  0
   -3.8090  -13.4825   -4.8832 H   0  0
   -2.9625  -11.2006   -4.2157 H   0  0
   -6.4253  -10.7008   -1.7883 H   0  0
   -6.0019  -14.7623   -5.2282 H   0  0
   -7.0439  -14.8509   -3.7415 H   0  0
   -5.3379  -15.4392   -3.7436 H   0  0
  1  2  1  0
  2  3  2  0
  3  4  1  0
  4  5  2  0
  5  6  1  0
  1  6  2  0
  5  7  1  0
  7  8  1  0
  8  9  1  0
  1 10  1  0
 10 11  1  0
  2 12  1  0
  9 13  1  0
 13 14  1  0
 15 16  1  0
 17 13  1  0
 16 17  2  0
 14 15  2  0
 16 18  1  0
 20 21  1  0
 21 22  2  0
 22 23  1  0
 19 23  2  0
 19 18  1  0
 18 20  2  0
 12 24  1  0
 24 25  2  0
 24 26  1  0
 27 28  1  0
 28 29  2  0
 29 30  1  0
 27 31  2  0
 30 26  2  0
 26 31  1  0
 28 32  1  0
  3 33  1  0
  4 34  1  0
  6 35  1  0
  7 36  1  0
  7 37  1  0
  8 38  1  0
  8 39  1  0
  9 40  1  0
  9 41  1  0
 11 42  1  0
 11 43  1  0
 11 44  1  0
 17 45  1  0
 19 46  1  0
 20 47  1  0
 21 48  1  0
 22 49  1  0
 23 50  1  0
 27 51  1  0
 29 52  1  0
 30 53  1  0
 31 54  1  0
 32 55  1  0
 32 56  1  0
 32 57  1  0
M  END
> <Name>
TS2019_TS11

> <Clean Energy>
55.4154

$$$$
TS2019_TS12
  SciTegic12132405553D

 57 60  0  0  0  0            999 V2000
   -3.1288    0.5489    0.3422 C   0  0
   -2.0035   -0.0522   -0.3915 C   0  0
   -2.2434   -0.7682   -1.5062 C   0  0
   -3.6090   -0.9485   -1.9759 C   0  0
   -4.6241   -0.4121   -1.3123 C   0  0
   -4.3856    0.3696   -0.1058 C   0  0
   -6.0207   -0.6256   -1.8077 C   0  0
   -6.6289    0.7197   -2.2274 C   0  0
   -8.0632    0.4705   -2.7108 C   0  0
   -2.7883    1.3044    1.5195 O   0  0
   -3.8789    1.9022    2.2447 C   0  0
   -8.6516    1.7113   -3.1057 N   0  0
   -9.6271    2.3640   -2.4328 N   0  0
   -9.9279    3.3854   -3.0465 N   0  0
   -9.1323    3.4628   -4.2047 C   0  0
   -8.3453    2.4103   -4.2196 C   0  0
   -9.1876    4.5312   -5.2044 C   0  0
   -8.2990    4.5145   -6.3742 C   0  0
  -10.0564    5.5270   -5.0464 C   0  0
  -10.1279    6.6029   -6.0351 C   0  0
   -9.3226    6.5880   -7.0953 C   0  0
   -8.3654    5.4952   -7.2725 C   0  0
    1.6841   -0.1382    0.1959 C   0  0
    2.8380   -0.0893   -0.4647 C   0  0
    4.0824    0.1781    0.2568 C   0  0
    4.0589    0.3720    1.5748 C   0  0
    2.7879    0.3181    2.2995 C   0  0
    1.6566    0.0750    1.6418 C   0  0
    5.2432    0.6260    2.2682 N   0  3
    6.3967    0.6751    1.6192 O   0  5
    5.2163    0.7955    3.4310 O   0  0
    0.4149   -0.4153   -0.5399 C   0  0
   -0.6948    0.1742    0.1590 O   0  0
   -1.4635   -1.2161   -2.0603 H   0  0
   -3.7948   -1.5173   -2.8511 H   0  0
   -5.2199    0.7820    0.3942 H   0  0
   -6.0222   -1.3189   -2.6602 H   0  0
   -6.6440   -1.0044   -0.9861 H   0  0
   -6.6462    1.4055   -1.3691 H   0  0
   -6.0309    1.1591   -3.0382 H   0  0
   -8.0115   -0.2059   -3.5753 H   0  0
   -8.6475    0.0199   -1.8966 H   0  0
   -3.4827    2.4463    3.1138 H   0  0
   -4.5682    1.1171    2.5891 H   0  0
   -4.4170    2.6039    1.5897 H   0  0
   -7.6219    2.1580   -4.9533 H   0  0
   -7.6042    3.7251   -6.5067 H   0  0
  -10.6987    5.5398   -4.2027 H   0  0
  -10.8215    7.3948   -5.9074 H   0  0
   -9.3751    7.3683   -7.8116 H   0  0
   -7.7241    5.4841   -8.1169 H   0  0
    2.8549   -0.2454   -1.5133 H   0  0
    5.0014    0.2163   -0.2702 H   0  0
    2.7685    0.4723    3.3484 H   0  0
    0.7357    0.0353    2.1666 H   0  0
    0.4952   -0.0604   -1.5775 H   0  0
    0.2701   -1.5049   -0.5610 H   0  0
  1  2  1  0
  2  3  2  0
  3  4  1  0
  4  5  2  0
  5  6  1  0
  1  6  2  0
  5  7  1  0
  7  8  1  0
  8  9  1  0
  1 10  1  0
 10 11  1  0
  9 12  1  0
 12 13  1  0
 14 15  1  0
 16 12  1  0
 15 16  2  0
 13 14  2  0
 15 17  1  0
 19 20  1  0
 20 21  2  0
 21 22  1  0
 18 22  2  0
 18 17  1  0
 17 19  2  0
 24 25  1  0
 25 26  2  0
 26 27  1  0
 27 28  2  0
 28 23  1  0
 24 23  2  0
 26 29  1  0
 29 30  1  0
 29 31  2  0
 23 32  1  0
 32 33  1  0
 33  2  1  0
  3 34  1  0
  4 35  1  0
  6 36  1  0
  7 37  1  0
  7 38  1  0
  8 39  1  0
  8 40  1  0
  9 41  1  0
  9 42  1  0
 11 43  1  0
 11 44  1  0
 11 45  1  0
 16 46  1  0
 18 47  1  0
 19 48  1  0
 20 49  1  0
 21 50  1  0
 22 51  1  0
 24 52  1  0
 25 53  1  0
 27 54  1  0
 28 55  1  0
 32 56  1  0
 32 57  1  0
M  CHG  2  29   1  30  -1
M  END
> <Name>
TS2019_TS12

> <Clean Energy>
47.7926

$$$$
TS2019_TS13
  SciTegic12132405553D

 55 58  0  0  0  0            999 V2000
   -2.2123   -1.3390   -1.6160 C   0  0
   -2.0169   -0.8291   -0.1805 C   0  0
   -3.0890   -0.5150    0.5435 C   0  0
   -4.4256   -0.6390    0.0005 C   0  0
   -4.6087   -1.0715   -1.2381 C   0  0
   -3.4766   -1.4372   -2.0796 C   0  0
   -5.9965   -1.1746   -1.7797 C   0  0
   -6.4082   -2.6503   -1.8172 C   0  0
   -7.8296   -2.7373   -2.3863 C   0  0
   -1.0628   -1.6969   -2.4280 O   0  0
   -1.3041   -2.1725   -3.7670 C   0  0
   -8.2402   -4.1048   -2.4292 N   0  0
   -8.3466   -4.8570   -3.5489 N   0  0
   -8.7585   -5.9749   -3.2469 N   0  0
   -8.9529   -6.0196   -1.8536 C   0  0
   -8.6221   -4.8445   -1.3668 C   0  0
   -9.4417   -7.1754   -1.0987 C   0  0
   -9.5957   -7.1106    0.3610 C   0  0
   -9.7506   -8.2954   -1.7483 C   0  0
  -10.2432   -9.4594   -1.0117 C   0  0
  -10.3828   -9.4007    0.3111 C   0  0
  -10.0435   -8.1715    1.0294 C   0  0
    1.6439   -0.6860    0.6277 C   0  0
    2.8526   -0.6572    0.0721 C   0  0
    4.0318   -0.3972    0.8987 C   0  0
    3.8947   -0.1890    2.2068 C   0  0
    2.5643   -0.2211    2.8179 C   0  0
    1.4916   -0.4580    2.0655 C   0  0
    0.4434   -0.9471   -0.2224 C   0  0
   -0.7536   -0.6404    0.4908 O   0  0
    5.2863    0.1192    3.1827 Cl  0  0
   -2.9607   -0.1613    1.5348 H   0  0
   -5.2633   -0.3763    0.5952 H   0  0
   -3.6873   -1.7774   -3.0550 H   0  0
   -6.6997   -0.6228   -1.1405 H   0  0
   -6.0185   -0.8132   -2.8170 H   0  0
   -5.7178   -3.2135   -2.4606 H   0  0
   -6.3862   -3.0662   -0.7999 H   0  0
   -8.4931   -2.1735   -1.7160 H   0  0
   -7.8394   -2.3095   -3.3983 H   0  0
   -0.3433   -2.4008   -4.2499 H   0  0
   -1.8281   -1.3975   -4.3457 H   0  0
   -1.9191   -3.0842   -3.7298 H   0  0
   -8.6530   -4.5365   -0.3524 H   0  0
   -9.3514   -6.2225    0.8855 H   0  0
   -9.6408   -8.3431   -2.8019 H   0  0
  -10.4896  -10.3502   -1.5316 H   0  0
  -10.7401  -10.2450    0.8443 H   0  0
  -10.1546   -8.1257    2.0830 H   0  0
    2.9601   -0.8213   -0.9700 H   0  0
    4.9952   -0.3737    0.4561 H   0  0
    2.4552   -0.0553    3.8596 H   0  0
    0.5285   -0.4809    2.5084 H   0  0
    0.5276   -0.3634   -1.1498 H   0  0
    0.4461   -2.0079   -0.5089 H   0  0
  1  2  1  0
  2  3  2  0
  3  4  1  0
  4  5  2  0
  5  6  1  0
  1  6  2  0
  5  7  1  0
  7  8  1  0
  8  9  1  0
  1 10  1  0
 10 11  1  0
  9 12  1  0
 12 13  1  0
 14 15  1  0
 16 12  1  0
 15 16  2  0
 13 14  2  0
 15 17  1  0
 19 20  1  0
 20 21  2  0
 21 22  1  0
 18 22  2  0
 18 17  1  0
 17 19  2  0
 24 25  1  0
 25 26  2  0
 26 27  1  0
 27 28  2  0
 28 23  1  0
 24 23  2  0
 23 29  1  0
 29 30  1  0
 30  2  1  0
 26 31  1  0
  3 32  1  0
  4 33  1  0
  6 34  1  0
  7 35  1  0
  7 36  1  0
  8 37  1  0
  8 38  1  0
  9 39  1  0
  9 40  1  0
 11 41  1  0
 11 42  1  0
 11 43  1  0
 16 44  1  0
 18 45  1  0
 19 46  1  0
 20 47  1  0
 21 48  1  0
 22 49  1  0
 24 50  1  0
 25 51  1  0
 27 52  1  0
 28 53  1  0
 29 54  1  0
 29 55  1  0
M  END
> <Name>
TS2019_TS13

> <Clean Energy>
50.5041

$$$$
TS2019_TS14
  SciTegic12132405553D

 58 61  0  0  0  0            999 V2000
   -2.0184   -1.6230   -1.9600 C   0  0
   -1.8044   -0.8826   -0.7060 C   0  0
   -2.8404   -0.2516   -0.1217 C   0  0
   -4.1600   -0.2982   -0.7332 C   0  0
   -4.3527   -0.9593   -1.8664 C   0  0
   -3.2458   -1.6536   -2.5125 C   0  0
   -5.7171   -0.9746   -2.4838 C   0  0
   -6.2593   -2.4104   -2.5135 C   0  0
   -7.6462   -2.3841   -3.1697 C   0  0
   -0.8627   -2.2762   -2.5170 O   0  0
   -1.0581   -3.0083   -3.7411 C   0  0
   -8.1799   -3.7092   -3.2141 N   0  0
   -8.3610   -4.4418   -4.3371 N   0  0
   -8.8665   -5.5213   -4.0387 N   0  0
   -9.0529   -5.5588   -2.6444 C   0  0
   -8.6172   -4.4204   -2.1525 C   0  0
   -9.6337   -6.6739   -1.8942 C   0  0
   -9.7700   -6.6087   -0.4329 C   0  0
  -10.0428   -7.7575   -2.5500 C   0  0
  -10.6277   -8.8812   -1.8188 C   0  0
  -10.7513   -8.8224   -0.4944 C   0  0
  -10.3020   -7.6331    0.2308 C   0  0
    1.2139   -0.1995    1.3865 C   0  0
    1.5883   -0.1038    2.6599 C   0  0
    3.0086   -0.1411    3.0077 C   0  0
    3.9239   -0.2702    2.0502 C   0  0
    3.5123   -0.3760    0.6515 C   0  0
    2.2199   -0.3425    0.3346 C   0  0
   -0.2350   -0.1555    1.0296 C   0  0
   -0.4624   -0.8846   -0.1890 O   0  0
    5.3756   -0.3059    2.4055 C   0  0
   -2.7280    0.2911    0.7775 H   0  0
   -4.9719    0.2056   -0.2738 H   0  0
   -3.4391   -2.1708   -3.4132 H   0  0
   -6.4001   -0.3281   -1.9155 H   0  0
   -5.6442   -0.6503   -3.5310 H   0  0
   -5.5879   -3.0517   -3.1012 H   0  0
   -6.3361   -2.7987   -1.4881 H   0  0
   -8.2942   -1.7466   -2.5524 H   0  0
   -7.5594   -1.9805   -4.1880 H   0  0
   -0.1036   -3.4549   -4.0541 H   0  0
   -1.4166   -2.3265   -4.5265 H   0  0
   -1.7984   -3.8064   -3.5797 H   0  0
   -8.6128   -4.1184   -1.1357 H   0  0
   -9.4461   -5.7495    0.0965 H   0  0
   -9.9456   -7.8053   -3.6049 H   0  0
  -10.9538   -9.7430   -2.3438 H   0  0
  -11.1756   -9.6375    0.0350 H   0  0
  -10.4004   -7.5871    1.2856 H   0  0
    0.8573    0.0012    3.4206 H   0  0
    3.3096   -0.0641    4.0214 H   0  0
    4.2433   -0.4790   -0.1096 H   0  0
    1.9200   -0.4185   -0.6799 H   0  0
   -0.8423   -0.5325    1.8651 H   0  0
   -0.5049    0.8960    0.8561 H   0  0
    5.9967   -0.4049    1.5037 H   0  0
    5.5494   -1.1432    3.0959 H   0  0
    5.6268    0.6102    2.9588 H   0  0
  1  2  1  0
  2  3  2  0
  3  4  1  0
  4  5  2  0
  5  6  1  0
  1  6  2  0
  5  7  1  0
  7  8  1  0
  8  9  1  0
  1 10  1  0
 10 11  1  0
  9 12  1  0
 12 13  1  0
 14 15  1  0
 16 12  1  0
 15 16  2  0
 13 14  2  0
 15 17  1  0
 19 20  1  0
 20 21  2  0
 21 22  1  0
 18 22  2  0
 18 17  1  0
 17 19  2  0
 24 25  1  0
 25 26  2  0
 26 27  1  0
 27 28  2  0
 28 23  1  0
 24 23  2  0
 23 29  1  0
 29 30  1  0
 30  2  1  0
 26 31  1  0
  3 32  1  0
  4 33  1  0
  6 34  1  0
  7 35  1  0
  7 36  1  0
  8 37  1  0
  8 38  1  0
  9 39  1  0
  9 40  1  0
 11 41  1  0
 11 42  1  0
 11 43  1  0
 16 44  1  0
 18 45  1  0
 19 46  1  0
 20 47  1  0
 21 48  1  0
 22 49  1  0
 24 50  1  0
 25 51  1  0
 27 52  1  0
 28 53  1  0
 29 54  1  0
 29 55  1  0
 31 56  1  0
 31 57  1  0
 31 58  1  0
M  END
> <Name>
TS2019_TS14

> <Clean Energy>
60.2882

$$$$
TS2019_TS15
  SciTegic12132405553D

 45 47  0  0  0  0            999 V2000
   -4.7691   -5.5507    1.4353 C   0  0
   -4.9216   -6.9843    1.7350 C   0  0
   -3.8441   -7.7048    2.1002 C   0  0
   -2.5396   -7.0659    2.1981 C   0  0
   -2.4034   -5.7743    1.9305 C   0  0
   -3.5553   -4.9775    1.5336 C   0  0
   -1.0562   -5.1350    2.0433 C   0  0
   -0.5806   -4.7270    0.6428 C   0  0
    0.7903   -4.0525    0.7671 C   0  0
    1.2298   -3.6531   -0.5320 N   0  0
    2.2011   -4.2549   -1.2574 N   0  0
    2.3453   -3.6503   -2.3184 N   0  0
    1.4376   -2.5739   -2.3478 C   0  0
    0.7551   -2.5982   -1.2256 C   0  0
    1.2922   -1.6067   -3.4383 C   0  0
    0.2990   -0.5265   -3.3571 C   0  0
    2.0713   -1.7104   -4.5127 C   0  0
    1.9397   -0.7511   -5.6099 C   0  0
    1.0398    0.2274   -5.5359 C   0  0
    0.1811    0.3446   -4.3569 C   0  0
   -5.9659   -4.8500    1.0484 O   0  0
   -5.8291   -3.4482    0.7484 C   0  0
   -6.2521   -7.5217    1.6120 O   0  0
   -6.4178   -8.9213    1.9071 C   0  0
   -3.9114   -8.7349    2.3237 H   0  0
   -1.6934   -7.6354    2.4873 H   0  0
   -3.4041   -3.9521    1.3290 H   0  0
   -1.1371   -4.2080    2.6275 H   0  0
   -0.3348   -5.8318    2.4924 H   0  0
   -0.5010   -5.6169    0.0031 H   0  0
   -1.2976   -4.0202    0.2019 H   0  0
    0.6699   -3.1655    1.4041 H   0  0
    1.5046   -4.7604    1.2100 H   0  0
   -0.0090   -1.9278   -0.9231 H   0  0
   -0.3254   -0.4373   -2.5052 H   0  0
    2.7887   -2.4888   -4.5726 H   0  0
    2.5619   -0.8351   -6.4646 H   0  0
    0.9454    0.9221   -6.3316 H   0  0
   -0.5357    1.1239   -4.2987 H   0  0
   -6.8101   -3.0385    0.4689 H   0  0
   -5.1272   -3.3168   -0.0890 H   0  0
   -5.4503   -2.9159    1.6336 H   0  0
   -7.4735   -9.1982    1.7753 H   0  0
   -6.1170   -9.1175    2.9473 H   0  0
   -5.7961   -9.5193    1.2245 H   0  0
  1  2  1  0
  2  3  2  0
  3  4  1  0
  4  5  2  0
  5  6  1  0
  1  6  2  0
  5  7  1  0
  7  8  1  0
  8  9  1  0
  9 10  1  0
 12 13  1  0
 14 10  1  0
 13 15  1  0
 17 18  1  0
 18 19  2  0
 19 20  1  0
 16 20  2  0
 16 15  1  0
 15 17  2  0
 13 14  2  0
 11 12  2  0
 10 11  1  0
  1 21  1  0
 21 22  1  0
  2 23  1  0
 23 24  1  0
  3 25  1  0
  4 26  1  0
  6 27  1  0
  7 28  1  0
  7 29  1  0
  8 30  1  0
  8 31  1  0
  9 32  1  0
  9 33  1  0
 14 34  1  0
 16 35  1  0
 17 36  1  0
 18 37  1  0
 19 38  1  0
 20 39  1  0
 22 40  1  0
 22 41  1  0
 22 42  1  0
 24 43  1  0
 24 44  1  0
 24 45  1  0
M  END
> <Name>
TS2019_TS15

> <Clean Energy>
38.3521

$$$$
TS2019_TS16
  SciTegic12132405553D

 54 56  0  0  0  0            999 V2000
   -4.6647   -5.4724    0.6898 C   0  0
   -4.8670   -6.2888    1.8974 C   0  0
   -3.8039   -6.6539    2.6386 C   0  0
   -2.4650   -6.2371    2.2486 C   0  0
   -2.2787   -5.4956    1.1648 C   0  0
   -3.4202   -5.0919    0.3446 C   0  0
   -0.8827   -5.0647    0.8066 C   0  0
   -0.5533   -5.4143   -0.6546 C   0  0
    0.8671   -4.9178   -0.9550 C   0  0
    1.1947   -5.2010   -2.3169 N   0  0
    2.1120   -6.1028   -2.7381 N   0  0
    2.1860   -6.0600   -3.9650 N   0  0
    1.2833   -5.0863   -4.4347 C   0  0
    0.6778   -4.5683   -3.3905 C   0  0
    1.0717   -4.7208   -5.8375 C   0  0
    0.0869   -3.6937   -6.2060 C   0  0
    1.7834   -5.3259   -6.7859 C   0  0
    1.5866   -4.9690   -8.1915 C   0  0
    0.6943   -4.0386   -8.5246 C   0  0
   -0.0907   -3.3717   -7.4854 C   0  0
   -5.8510   -5.1299   -0.0512 O   0  0
   -5.6691   -4.3352   -1.2383 C   0  0
   -6.2283   -6.6381    2.2071 O   0  0
   -6.4429   -7.4179    3.3961 C   0  0
   -7.9435   -7.6681    3.5725 C   0  0
   -8.1663   -8.4908    4.8449 C   0  0
   -9.6699   -8.7381    5.0259 C   0  0
   -3.9074   -7.2381    3.5126 H   0  0
   -1.6322   -6.5215    2.8398 H   0  0
   -3.2386   -4.5010   -0.5111 H   0  0
   -0.8243   -3.9703    0.8820 H   0  0
   -0.1583   -5.5306    1.4891 H   0  0
   -0.6105   -6.5015   -0.8034 H   0  0
   -1.2643   -4.9125   -1.3252 H   0  0
    0.8766   -3.8303   -0.7982 H   0  0
    1.5790   -5.4146   -0.2813 H   0  0
   -0.0589   -3.8053   -3.3875 H   0  0
   -0.4842   -3.2076   -5.4568 H   0  0
    2.4952   -6.0661   -6.5218 H   0  0
    2.1556   -5.4514   -8.9453 H   0  0
    0.5527   -3.7805   -9.5435 H   0  0
   -0.8015   -2.6310   -7.7514 H   0  0
   -6.6470   -4.1484   -1.7044 H   0  0
   -5.0240   -4.8748   -1.9482 H   0  0
   -5.2023   -3.3752   -0.9726 H   0  0
   -5.9191   -8.3810    3.3103 H   0  0
   -6.0649   -6.8690    4.2709 H   0  0
   -8.4685   -6.7066    3.6617 H   0  0
   -8.3311   -8.2193    2.7043 H   0  0
   -7.6412   -9.4523    4.7569 H   0  0
   -7.7771   -7.9371    5.7114 H   0  0
   -9.8376   -9.3277    5.9386 H   0  0
  -10.0564   -9.2880    4.1562 H   0  0
  -10.1902   -7.7731    5.1107 H   0  0
  1  2  1  0
  2  3  2  0
  3  4  1  0
  4  5  2  0
  5  6  1  0
  1  6  2  0
  5  7  1  0
  7  8  1  0
  8  9  1  0
  9 10  1  0
 12 13  1  0
 14 10  1  0
 13 15  1  0
 17 18  1  0
 18 19  2  0
 19 20  1  0
 16 20  2  0
 16 15  1  0
 15 17  2  0
 13 14  2  0
 11 12  2  0
 10 11  1  0
  1 21  1  0
 21 22  1  0
  2 23  1  0
 23 24  1  0
 24 25  1  0
 25 26  1  0
 26 27  1  0
  3 28  1  0
  4 29  1  0
  6 30  1  0
  7 31  1  0
  7 32  1  0
  8 33  1  0
  8 34  1  0
  9 35  1  0
  9 36  1  0
 14 37  1  0
 16 38  1  0
 17 39  1  0
 18 40  1  0
 19 41  1  0
 20 42  1  0
 22 43  1  0
 22 44  1  0
 22 45  1  0
 24 46  1  0
 24 47  1  0
 25 48  1  0
 25 49  1  0
 26 50  1  0
 26 51  1  0
 27 52  1  0
 27 53  1  0
 27 54  1  0
M  END
> <Name>
TS2019_TS16

> <Clean Energy>
36.7297

$$$$
TS2019_TS17
  SciTegic12132405553D

 55 58  0  0  0  0            999 V2000
   -4.0676   -5.9204    1.9315 C   0  0
   -4.4402   -7.4061    1.8174 C   0  0
   -3.5238   -8.2691    1.3838 C   0  0
   -2.1898   -7.8326    1.0262 C   0  0
   -1.8538   -6.5551    1.1248 C   0  0
   -2.8125   -5.5612    1.5879 C   0  0
   -0.4697   -6.1302    0.7628 C   0  0
   -0.5067   -5.4626   -0.6156 C   0  0
    0.9144   -5.0163   -0.9757 C   0  0
    0.8930   -4.3829   -2.2546 N   0  0
    1.2690   -4.9529   -3.4228 N   0  0
    1.1557   -4.1291   -4.3283 N   0  0
    0.6788   -2.9233   -3.7798 C   0  0
    0.5220   -3.1077   -2.4882 C   0  0
    0.4135   -1.6915   -4.5264 C   0  0
   -0.0925   -0.4924   -3.8442 C   0  0
    0.6368   -1.6622   -5.8386 C   0  0
    0.3798   -0.4392   -6.5996 C   0  0
   -0.0786    0.6470   -5.9811 C   0  0
   -0.3260    0.6189   -4.5390 C   0  0
   -5.0470   -4.9535    2.3951 O   0  0
   -4.6439   -3.5723    2.4802 C   0  0
   -5.7186   -7.9900    2.1454 O   0  0
   -6.7510   -7.1293    2.6239 C   0  0
   -7.9949   -7.9057    2.9091 C   0  0
   -9.2370   -9.9721    2.6935 C   0  0
  -10.3231   -9.3507    3.4545 C   0  0
  -10.2011   -8.0968    3.8861 C   0  0
   -8.9814   -7.3406    3.6004 C   0  0
   -8.1275   -9.2834    2.4334 C   0  0
   -3.7744   -9.2961    1.3036 H   0  0
   -1.4759   -8.5399    0.6880 H   0  0
   -2.4850   -4.5604    1.6417 H   0  0
   -0.1133   -5.3727    1.4744 H   0  0
    0.2012   -6.9995    0.7199 H   0  0
   -0.8733   -6.1775   -1.3651 H   0  0
   -1.1718   -4.5878   -0.5846 H   0  0
    1.2465   -4.2992   -0.2122 H   0  0
    1.5697   -5.8980   -1.0006 H   0  0
    0.1798   -2.4018   -1.7746 H   0  0
   -0.2732   -0.5079   -2.7997 H   0  0
    1.0028   -2.5263   -6.3321 H   0  0
    0.5592   -0.4180   -7.6446 H   0  0
   -0.2644    1.5330   -6.5336 H   0  0
   -0.6915    1.4843   -4.0471 H   0  0
   -5.4882   -2.9694    2.8437 H   0  0
   -4.3417   -3.2137    1.4848 H   0  0
   -3.7996   -3.4760    3.1789 H   0  0
   -6.4470   -6.5925    3.5334 H   0  0
   -6.9846   -6.3693    1.8654 H   0  0
   -9.3341  -10.9705    2.3496 H   0  0
  -11.2068   -9.8993    3.6618 H   0  0
  -10.9873   -7.6467    4.4374 H   0  0
   -8.8822   -6.3426    3.9447 H   0  0
   -7.3414   -9.7337    1.8825 H   0  0
  1  2  1  0
  2  3  2  0
  3  4  1  0
  4  5  2  0
  5  6  1  0
  1  6  2  0
  5  7  1  0
  7  8  1  0
  8  9  1  0
  9 10  1  0
 12 13  1  0
 14 10  1  0
 13 15  1  0
 17 18  1  0
 18 19  2  0
 19 20  1  0
 16 20  2  0
 16 15  1  0
 15 17  2  0
 13 14  2  0
 11 12  2  0
 10 11  1  0
  1 21  1  0
 21 22  1  0
  2 23  1  0
 23 24  1  0
 24 25  1  0
 26 27  1  0
 27 28  2  0
 28 29  1  0
 26 30  2  0
 29 25  2  0
 25 30  1  0
  3 31  1  0
  4 32  1  0
  6 33  1  0
  7 34  1  0
  7 35  1  0
  8 36  1  0
  8 37  1  0
  9 38  1  0
  9 39  1  0
 14 40  1  0
 16 41  1  0
 17 42  1  0
 18 43  1  0
 19 44  1  0
 20 45  1  0
 22 46  1  0
 22 47  1  0
 22 48  1  0
 24 49  1  0
 24 50  1  0
 26 51  1  0
 27 52  1  0
 28 53  1  0
 29 54  1  0
 30 55  1  0
M  END
> <Name>
TS2019_TS17

> <Clean Energy>
50.4482

$$$$
TS2019_TS18
  SciTegic12132405553D

 55 58  0  0  0  0            999 V2000
   -7.9950   -7.5384    3.7790 C   0  0
   -7.3432   -8.2788    2.6894 C   0  0
   -8.0751   -9.0250    1.8554 C   0  0
   -9.5174   -9.1082    2.0244 C   0  0
  -10.1111   -8.4423    3.0067 C   0  0
   -9.3306   -7.6232    3.9235 C   0  0
  -11.5884   -8.5356    3.1814 C   0  0
  -11.8562   -9.5881    4.2600 C   0  0
  -13.3696   -9.7076    4.4854 C   0  0
  -13.6123  -10.6838    5.5042 N   0  0
  -14.2657  -11.8565    5.3311 N   0  0
  -14.2932  -12.4655    6.3989 N   0  0
  -13.6305  -11.6939    7.3725 C   0  0
  -13.2178  -10.5898    6.7928 C   0  0
  -13.4395  -12.0679    8.7755 C   0  0
  -12.7187  -11.1799    9.6985 C   0  0
  -13.9240  -13.2272    9.2148 C   0  0
  -13.7400  -13.6168   10.6132 C   0  0
  -13.0867  -12.8122   11.4491 C   0  0
  -12.5522  -11.5371   10.9701 C   0  0
   -7.1344   -6.7604    4.6307 O   0  0
   -7.7677   -6.0347    5.7011 C   0  0
   -5.9368   -8.1664    2.5712 O   0  0
   -5.2453   -9.0565    1.2852 S   0  0
   -5.5275  -10.5394    1.4410 O   0  0
   -5.7964   -8.5976   -0.0522 O   0  0
   -3.4972   -8.8172    1.2869 C   0  0
   -2.9317   -8.0604    2.2249 C   0  0
   -1.4819   -7.8619    2.2281 C   0  0
   -0.7293   -8.4386    1.2928 C   0  0
   -1.3530   -9.2709    0.2616 C   0  0
   -2.6723   -9.4507    0.2597 C   0  0
   -7.6191   -9.5608    1.0705 H   0  0
  -10.0955   -9.7031    1.3639 H   0  0
   -9.8438   -7.1103    4.6914 H   0  0
  -11.9895   -7.5807    3.5483 H   0  0
  -12.0719   -8.8576    2.2486 H   0  0
  -11.4533  -10.5579    3.9368 H   0  0
  -11.3672   -9.2809    5.1952 H   0  0
  -13.7338   -8.7272    4.8224 H   0  0
  -13.8647  -10.0036    3.5501 H   0  0
  -12.6822   -9.7905    7.2400 H   0  0
  -12.3294  -10.2553    9.3563 H   0  0
  -14.4437  -13.8692    8.5500 H   0  0
  -14.1270  -14.5408   10.9611 H   0  0
  -12.9536  -13.0957   12.4623 H   0  0
  -12.0316  -10.8969   11.6363 H   0  0
   -7.0038   -5.4869    6.2710 H   0  0
   -8.2855   -6.7392    6.3692 H   0  0
   -8.4936   -5.3206    5.2845 H   0  0
   -3.5319   -7.6018    2.9696 H   0  0
   -1.0307   -7.2591    2.9750 H   0  0
    0.3215   -8.2951    1.2948 H   0  0
   -0.7540   -9.7303   -0.4832 H   0  0
   -3.1252  -10.0532   -0.4864 H   0  0
  1  2  1  0
  2  3  2  0
  3  4  1  0
  4  5  2  0
  5  6  1  0
  1  6  2  0
  5  7  1  0
  7  8  1  0
  8  9  1  0
  9 10  1  0
 12 13  1  0
 14 10  1  0
 13 15  1  0
 17 18  1  0
 18 19  2  0
 19 20  1  0
 16 20  2  0
 16 15  1  0
 15 17  2  0
 13 14  2  0
 11 12  2  0
 10 11  1  0
  1 21  1  0
 21 22  1  0
  2 23  1  0
 23 24  1  0
 24 25  2  0
 24 26  2  0
 24 27  1  0
 28 29  1  0
 29 30  2  0
 30 31  1  0
 31 32  2  0
 32 27  1  0
 28 27  2  0
  3 33  1  0
  4 34  1  0
  6 35  1  0
  7 36  1  0
  7 37  1  0
  8 38  1  0
  8 39  1  0
  9 40  1  0
  9 41  1  0
 14 42  1  0
 16 43  1  0
 17 44  1  0
 18 45  1  0
 19 46  1  0
 20 47  1  0
 22 48  1  0
 22 49  1  0
 22 50  1  0
 28 51  1  0
 29 52  1  0
 30 53  1  0
 31 54  1  0
 32 55  1  0
M  END
> <Name>
TS2019_TS18

> <Clean Energy>
40.5841

$$$$
TS2019_TS19
  SciTegic12132405553D

 58 61  0  0  0  0            999 V2000
   -8.0548   -7.5556    3.8213 C   0  0
   -7.3822   -8.2977    2.7463 C   0  0
   -8.0984   -9.0374    1.8932 C   0  0
   -9.5449   -9.1137    2.0291 C   0  0
  -10.1571   -8.4474    2.9998 C   0  0
   -9.3935   -7.6335    3.9350 C   0  0
  -11.6375   -8.5376    3.1462 C   0  0
  -11.9199   -9.5751    4.2358 C   0  0
  -13.4358   -9.6986    4.4453 C   0  0
  -13.6863  -10.6618    5.4768 N   0  0
  -14.3808  -11.8141    5.3262 N   0  0
  -14.3962  -12.4199    6.3964 N   0  0
  -13.6817  -11.6675    7.3484 C   0  0
  -13.2526  -10.5777    6.7542 C   0  0
  -13.4594  -12.0450    8.7460 C   0  0
  -12.6834  -11.1778    9.6439 C   0  0
  -13.9649  -13.1883    9.2032 C   0  0
  -13.7490  -13.5809   10.5963 C   0  0
  -13.0456  -12.7952   11.4092 C   0  0
  -12.4879  -11.5378   10.9105 C   0  0
   -7.2097   -6.7839    4.6942 O   0  0
   -7.8635   -6.0569    5.7513 C   0  0
   -5.9732   -8.1954    2.6644 O   0  0
   -5.2536   -9.0901    1.3978 S   0  0
   -5.5611  -10.5696    1.5373 O   0  0
   -5.7541   -8.6177    0.0454 O   0  0
   -3.5035   -8.8770    1.4625 C   0  0
   -2.9622   -8.1249    2.4183 C   0  0
   -1.5117   -7.9505    2.4762 C   0  0
   -0.7347   -8.5441    1.5736 C   0  0
   -1.3290   -9.3698    0.5233 C   0  0
   -2.6499   -9.5286    0.4702 C   0  0
    0.7483   -8.3666    1.6346 C   0  0
   -7.6268   -9.5746    1.1183 H   0  0
  -10.1108   -9.7057    1.3555 H   0  0
   -9.9213   -7.1194    4.6922 H   0  0
  -12.0454   -7.5784    3.4940 H   0  0
  -12.1045   -8.8719    2.2093 H   0  0
  -11.5090  -10.5480    3.9324 H   0  0
  -11.4441   -9.2523    5.1724 H   0  0
  -13.8084   -8.7154    4.7644 H   0  0
  -13.9218  -10.0089    3.5099 H   0  0
  -12.6792   -9.7952    7.1840 H   0  0
  -12.2770  -10.2660    9.2873 H   0  0
  -14.5242  -13.8154    8.5566 H   0  0
  -14.1527  -14.4921   10.9586 H   0  0
  -12.8893  -13.0810   12.4185 H   0  0
  -11.9274  -10.9126   11.5584 H   0  0
   -7.1101   -5.5144    6.3397 H   0  0
   -8.4004   -6.7600    6.4058 H   0  0
   -8.5759   -5.3380    5.3197 H   0  0
   -3.5826   -7.6538    3.1380 H   0  0
   -1.0783   -7.3524    3.2370 H   0  0
   -0.7079   -9.8417   -0.1948 H   0  0
   -3.0829  -10.1273   -0.2904 H   0  0
    1.2391   -8.8852    0.7987 H   0  0
    1.1086   -8.7535    2.5984 H   0  0
    0.9784   -7.2918    1.6257 H   0  0
  1  2  1  0
  2  3  2  0
  3  4  1  0
  4  5  2  0
  5  6  1  0
  1  6  2  0
  5  7  1  0
  7  8  1  0
  8  9  1  0
  9 10  1  0
 12 13  1  0
 14 10  1  0
 13 15  1  0
 17 18  1  0
 18 19  2  0
 19 20  1  0
 16 20  2  0
 16 15  1  0
 15 17  2  0
 13 14  2  0
 11 12  2  0
 10 11  1  0
  1 21  1  0
 21 22  1  0
  2 23  1  0
 23 24  1  0
 24 25  2  0
 24 26  2  0
 24 27  1  0
 28 29  1  0
 29 30  2  0
 30 31  1  0
 31 32  2  0
 32 27  1  0
 28 27  2  0
 30 33  1  0
  3 34  1  0
  4 35  1  0
  6 36  1  0
  7 37  1  0
  7 38  1  0
  8 39  1  0
  8 40  1  0
  9 41  1  0
  9 42  1  0
 14 43  1  0
 16 44  1  0
 17 45  1  0
 18 46  1  0
 19 47  1  0
 20 48  1  0
 22 49  1  0
 22 50  1  0
 22 51  1  0
 28 52  1  0
 29 53  1  0
 31 54  1  0
 32 55  1  0
 33 56  1  0
 33 57  1  0
 33 58  1  0
M  END
> <Name>
TS2019_TS19

> <Clean Energy>
52.3799

$$$$
TS2019_TS20
  SciTegic12132405553D

 57 60  0  0  0  0            999 V2000
   -8.0251   -7.5572    3.7972 C   0  0
   -7.3643   -8.3069    2.7198 C   0  0
   -8.0901   -9.0513    1.8789 C   0  0
   -9.5352   -9.1244    2.0297 C   0  0
  -10.1368   -8.4507    3.0019 C   0  0
   -9.3628   -7.6325    3.9247 C   0  0
  -11.6162   -8.5360    3.1610 C   0  0
  -11.8961   -9.5804    4.2444 C   0  0
  -13.4112   -9.6966    4.4611 C   0  0
  -13.6609  -10.6662    5.4854 N   0  0
  -14.3353  -11.8285    5.3218 N   0  0
  -14.3584  -12.4365    6.3905 N   0  0
  -13.6705  -11.6752    7.3548 C   0  0
  -13.2484  -10.5780    6.7691 C   0  0
  -13.4655  -12.0519    8.7552 C   0  0
  -12.7180  -11.1749    9.6674 C   0  0
  -13.9612  -13.2037    9.2018 C   0  0
  -13.7628  -13.5958   10.5976 C   0  0
  -13.0851  -12.8011   11.4236 C   0  0
  -12.5383  -11.5343   10.9365 C   0  0
   -7.1703   -6.7813    4.6567 O   0  0
   -7.8125   -6.0466    5.7156 C   0  0
   -5.9560   -8.2061    2.6214 O   0  0
   -5.2522   -9.1084    1.3511 S   0  0
   -5.5535  -10.5874    1.5082 O   0  0
   -5.7725   -8.6491    0.0017 O   0  0
   -3.5028   -8.8893    1.3896 C   0  0
   -2.7397   -9.4579    0.4595 C   0  0
   -1.2881   -9.2771    0.4946 C   0  0
   -0.7321   -8.5435    1.4581 C   0  0
   -1.5739   -7.9188    2.4802 C   0  0
   -2.8943   -8.0841    2.4468 C   0  0
    0.6518   -8.3685    1.4971 N   0  3
    1.4198   -8.9311    0.5763 O   0  5
    1.1365   -7.7207    2.3497 O   0  0
   -7.6273   -9.5938    1.1026 H   0  0
  -10.1086   -9.7190    1.3650 H   0  0
   -9.8824   -7.1129    4.6838 H   0  0
  -12.0172   -7.5773    3.5181 H   0  0
  -12.0920   -8.8624    2.2258 H   0  0
  -11.4926  -10.5532    3.9308 H   0  0
  -11.4129   -9.2678    5.1808 H   0  0
  -13.7763   -8.7137    4.7897 H   0  0
  -13.9023   -9.9975    3.5253 H   0  0
  -12.6938   -9.7875    7.2088 H   0  0
  -12.3196  -10.2563    9.3192 H   0  0
  -14.5000  -13.8378    8.5448 H   0  0
  -14.1586  -14.5137   10.9515 H   0  0
  -12.9415  -13.0865   12.4349 H   0  0
  -11.9984  -10.9020   11.5948 H   0  0
   -7.0525   -5.5015    6.2930 H   0  0
   -8.3438   -6.7447    6.3799 H   0  0
   -8.5282   -5.3295    5.2865 H   0  0
   -3.1841  -10.0421   -0.3059 H   0  0
   -0.6806   -9.7305   -0.2464 H   0  0
   -1.1320   -7.3349    3.2472 H   0  0
   -3.5050   -7.6320    3.1871 H   0  0
  1  2  1  0
  2  3  2  0
  3  4  1  0
  4  5  2  0
  5  6  1  0
  1  6  2  0
  5  7  1  0
  7  8  1  0
  8  9  1  0
  9 10  1  0
 12 13  1  0
 14 10  1  0
 13 15  1  0
 17 18  1  0
 18 19  2  0
 19 20  1  0
 16 20  2  0
 16 15  1  0
 15 17  2  0
 13 14  2  0
 11 12  2  0
 10 11  1  0
  1 21  1  0
 21 22  1  0
  2 23  1  0
 23 24  1  0
 24 25  2  0
 24 26  2  0
 24 27  1  0
 28 29  1  0
 29 30  2  0
 30 31  1  0
 31 32  2  0
 32 27  1  0
 28 27  2  0
 30 33  1  0
 33 34  1  0
 33 35  2  0
  3 36  1  0
  4 37  1  0
  6 38  1  0
  7 39  1  0
  7 40  1  0
  8 41  1  0
  8 42  1  0
  9 43  1  0
  9 44  1  0
 14 45  1  0
 16 46  1  0
 17 47  1  0
 18 48  1  0
 19 49  1  0
 20 50  1  0
 22 51  1  0
 22 52  1  0
 22 53  1  0
 28 54  1  0
 29 55  1  0
 31 56  1  0
 32 57  1  0
M  CHG  2  33   1  34  -1
M  END
> <Name>
TS2019_TS20

> <Clean Energy>
39.8616

$$$$
TS2019_TS21
  SciTegic12132405553D

 83 86  0  0  0  0            999 V2000
   -5.8284   -6.5384   -0.4473 C   0  0
   -6.9900   -7.3974   -0.7153 C   0  0
   -6.9027   -8.3556   -1.6572 C   0  0
   -5.6626   -8.5632   -2.3767 C   0  0
   -4.6025   -7.8051   -2.1353 C   0  0
   -4.6837   -6.7293   -1.1329 C   0  0
   -3.3478   -8.0744   -2.9364 C   0  0
   -2.0421   -7.7357   -2.1924 C   0  0
   -0.8840   -8.0442   -3.1504 C   0  0
    0.3748   -7.7458   -2.5399 N   0  0
    1.2460   -6.8119   -2.9839 N   0  0
    2.2680   -6.8544   -2.3047 N   0  0
    2.1201   -7.8610   -1.3341 C   0  0
    0.9320   -8.4010   -1.4947 C   0  0
    3.1316   -8.2298   -0.3416 C   0  0
    2.8701   -9.2830    0.6480 C   0  0
    4.3039   -7.6010   -0.3465 C   0  0
    5.3335   -7.9569    0.6289 C   0  0
    5.0979   -8.9118    1.5264 C   0  0
    3.8086   -9.6050    1.5371 C   0  0
   -6.0283   -5.4945    0.5234 O   0  0
   -4.9377   -4.5779    0.7253 C   0  0
   -8.1789   -7.1281    0.0587 O   0  0
   -9.7530   -6.8281   -4.3656 O   0  0
  -10.9307   -6.6470   -3.5827 C   0  0
  -10.8095   -7.4965   -2.3115 C   0  0  1  0  0  0
   -9.6548   -7.0585   -1.6487 O   0  0
   -9.3901   -7.7299   -0.4226 C   0  0  2  0  0  0
  -10.5253   -7.4971    0.5781 C   0  0  2  0  0  0
  -10.1109   -8.1720    1.8221 O   0  0
  -11.8609   -8.0969   -0.0457 C   0  0  1  0  0  0
  -12.9408   -7.8565    0.9190 O   0  0
  -12.0725   -7.3037   -1.4135 C   0  0  2  0  0  0
  -13.2713   -7.6618   -2.1997 O   0  0
  -13.3578   -8.9644   -2.7828 C   0  0
  -14.5448   -9.2813   -3.6424 C   0  0
  -12.4931   -9.8307   -2.6040 O   0  0
  -14.1800   -8.5833    0.9349 C   0  0
  -15.0263   -8.2357    1.7653 O   0  0
  -14.4723   -9.8207    0.1326 C   0  0
  -10.7407   -7.8807    3.0867 C   0  0
  -10.3700   -8.5310    4.0703 O   0  0
  -11.7334   -6.7560    3.3241 C   0  0
   -9.8194   -6.0402   -5.5059 C   0  0
   -8.6845   -6.0514   -6.4834 C   0  0
  -10.8049   -5.3225   -5.7112 O   0  0
   -7.7167   -8.9906   -1.8812 H   0  0
   -5.6012   -9.3320   -3.1043 H   0  0
   -3.8420   -6.1165   -0.9752 H   0  0
   -3.3537   -9.1243   -3.2619 H   0  0
   -3.3862   -7.4445   -3.8348 H   0  0
   -2.0257   -6.6701   -1.9257 H   0  0
   -1.9564   -8.3474   -1.2824 H   0  0
   -0.9283   -9.1168   -3.3852 H   0  0
   -1.0000   -7.4466   -4.0647 H   0  0
    0.5038   -9.1942   -0.9346 H   0  0
    1.9383   -9.7874    0.6592 H   0  0
    4.4941   -6.8419   -1.0627 H   0  0
    6.2680   -7.4557    0.6205 H   0  0
    5.8453   -9.1702    2.2332 H   0  0
    3.6215  -10.3646    2.2528 H   0  0
   -5.2257   -3.8302    1.4779 H   0  0
   -4.7115   -4.0664   -0.2253 H   0  0
   -4.0497   -5.1230    1.0699 H   0  0
  -11.0234   -5.5890   -3.3008 H   0  0
  -11.8140   -6.9536   -4.1579 H   0  0
  -10.6934   -8.5522   -2.5775 H   0  0
   -9.2685   -8.8105   -0.5786 H   0  0
  -10.6270   -6.4165    0.7424 H   0  0
  -11.7219   -9.1721   -0.2190 H   0  0
  -12.1545   -6.2383   -1.1578 H   0  0
  -14.4560  -10.2836   -4.0824 H   0  0
  -14.6351   -8.5094   -4.4219 H   0  0
  -15.4526   -9.2072   -3.0260 H   0  0
  -15.1372   -9.5372   -0.6937 H   0  0
  -15.0274  -10.5373    0.7533 H   0  0
  -13.5570  -10.2651   -0.2778 H   0  0
  -11.7377   -6.4747    4.3868 H   0  0
  -12.7337   -7.1198    3.0612 H   0  0
  -11.5098   -5.8991    2.6748 H   0  0
   -8.6260   -5.0876   -7.0097 H   0  0
   -8.8864   -6.8335   -7.2289 H   0  0
   -7.7440   -6.3041   -5.9712 H   0  0
  1  2  1  0
  2  3  2  0
  3  4  1  0
  4  5  2  0
  5  6  1  0
  1  6  2  0
  5  7  1  0
  7  8  1  0
  8  9  1  0
  9 10  1  0
 12 13  1  0
 14 10  1  0
 13 15  1  0
 17 18  1  0
 18 19  2  0
 19 20  1  0
 16 20  2  0
 16 15  1  0
 15 17  2  0
 13 14  2  0
 11 12  2  0
 10 11  1  0
  1 21  1  0
 21 22  1  0
  2 23  1  0
 24 25  1  0
 26 25  1  0
 26 27  1  0
 27 28  1  0
 28 29  1  0
 29 30  1  0
 29 31  1  0
 31 32  1  0
 31 33  1  0
 26 33  1  0
 33 34  1  0
 34 35  1  0
 35 36  1  0
 35 37  2  0
 32 38  1  0
 38 39  2  0
 38 40  1  0
 30 41  1  0
 41 42  2  0
 41 43  1  0
 24 44  1  0
 44 45  1  0
 44 46  2  0
 28 23  1  0
  3 47  1  0
  4 48  1  0
  6 49  1  0
  7 50  1  0
  7 51  1  0
  8 52  1  0
  8 53  1  0
  9 54  1  0
  9 55  1  0
 14 56  1  0
 16 57  1  0
 17 58  1  0
 18 59  1  0
 19 60  1  0
 20 61  1  0
 22 62  1  0
 22 63  1  0
 22 64  1  0
 25 65  1  0
 25 66  1  0
 26 67  1  0
 28 68  1  0
 29 69  1  0
 31 70  1  0
 33 71  1  0
 36 72  1  0
 36 73  1  0
 36 74  1  0
 40 75  1  0
 40 76  1  0
 40 77  1  0
 43 78  1  0
 43 79  1  0
 43 80  1  0
 45 81  1  0
 45 82  1  0
 45 83  1  0
M  END
> <Name>
TS2019_TS21

> <Clean Energy>
109.503

$$$$
TS2019_TS22
  SciTegic12132405553D

 83 86  0  0  0  0            999 V2000
   -6.1685   -6.5685   -0.4310 C   0  0
   -7.6154   -6.4798   -0.9208 C   0  0
   -7.8298   -6.4589   -2.2520 C   0  0
   -6.7179   -6.5359   -3.1924 C   0  0
   -5.4646   -6.6270   -2.7695 C   0  0
   -5.1840   -6.6352   -1.3237 C   0  0
   -4.3628   -6.7266   -3.8176 C   0  0
   -3.0403   -7.2964   -3.2664 C   0  0
   -2.0023   -7.3574   -4.3960 C   0  0
   -0.7712   -7.8772   -3.8742 N   0  0
    0.3969   -7.1976   -3.8140 N   0  0
    1.2534   -7.9078   -3.2925 N   0  0
    0.6724   -9.1469   -2.9655 C   0  0
   -0.5877   -9.1081   -3.3386 C   0  0
    1.3655  -10.2650   -2.3196 C   0  0
    0.6593  -11.5175   -2.0165 C   0  0
    2.6519  -10.1369   -2.0027 C   0  0
    3.3625  -11.2390   -1.3543 C   0  0
    2.7229  -12.3737   -1.0792 C   0  0
    1.3082  -12.5194   -1.4258 C   0  0
   -5.7377   -6.5832    0.9505 O   0  0
   -6.7329   -6.5010    1.9759 C   0  0
   -8.7000   -6.4442    0.0366 O   0  0
  -10.6694   -3.3373   -3.4443 O   0  0
  -11.5943   -3.4326   -2.3256 C   0  0
  -11.5295   -4.8156   -1.5731 C   0  0  1  0  0  0
  -10.2136   -5.0214   -1.0426 O   0  0
  -10.0467   -6.3156   -0.4452 C   0  0  2  0  0  0
  -10.9803   -6.5024    0.7449 C   0  0  2  0  0  0
  -10.6876   -7.8344    1.2876 O   0  0
  -12.4377   -6.3737    0.1977 C   0  0  1  0  0  0
  -13.3948   -6.5826    1.2487 O   0  0
  -12.5960   -4.9506   -0.3889 C   0  0  1  0  0  0
  -12.4052   -4.0410    0.7490 O   0  0
  -12.8809   -2.7278    0.6044 C   0  0
  -12.6933   -1.7575    1.7273 C   0  0
  -13.5039   -2.3801   -0.4040 O   0  0
  -14.7296   -6.6470    0.8096 C   0  0
  -15.0193   -6.5808   -0.3913 O   0  0
  -15.8163   -6.8480    1.8176 C   0  0
  -11.1445   -8.2056    2.6063 C   0  0
  -10.9054   -9.3560    2.9889 O   0  0
  -11.7967   -7.2540    3.6028 C   0  0
   -9.3174   -3.2092   -3.0736 C   0  0
   -8.2684   -3.1231   -4.1381 C   0  0
   -8.9839   -3.1191   -1.8868 O   0  0
   -8.8039   -6.4025   -2.6539 H   0  0
   -6.9157   -6.5297   -4.2342 H   0  0
   -4.1901   -6.6920   -0.9699 H   0  0
   -4.7346   -7.3325   -4.6558 H   0  0
   -4.1760   -5.7177   -4.2100 H   0  0
   -2.6643   -6.6454   -2.4651 H   0  0
   -3.2142   -8.3066   -2.8688 H   0  0
   -2.3911   -8.0337   -5.1704 H   0  0
   -1.8400   -6.3522   -4.8081 H   0  0
   -1.3128   -9.8762   -3.2364 H   0  0
   -0.3651  -11.6274   -2.2654 H   0  0
    3.1625   -9.2332   -2.2199 H   0  0
    4.3874  -11.1337   -1.1027 H   0  0
    3.2387  -13.1722   -0.6086 H   0  0
    0.7995  -13.4236   -1.2062 H   0  0
   -6.2453   -6.5210    2.9606 H   0  0
   -7.4214   -7.3549    1.8910 H   0  0
   -7.2965   -5.5622    1.8659 H   0  0
  -11.3942   -2.6084   -1.6316 H   0  0
  -12.6143   -3.3320   -2.7213 H   0  0
  -11.7447   -5.5985   -2.3129 H   0  0
  -10.2579   -7.1010   -1.1842 H   0  0
  -10.7661   -5.7336    1.4989 H   0  0
  -12.5926   -7.1299   -0.5833 H   0  0
  -13.6105   -4.8325   -0.7853 H   0  0
  -13.4220   -0.9374    1.6550 H   0  0
  -11.6797   -1.3387    1.6491 H   0  0
  -12.7559   -2.2848    2.6906 H   0  0
  -16.8048   -6.8398    1.3363 H   0  0
  -15.7400   -6.0643    2.5850 H   0  0
  -15.6436   -7.8045    2.3324 H   0  0
  -11.6574   -7.6262    4.6273 H   0  0
  -12.8737   -7.2234    3.3919 H   0  0
  -11.4058   -6.2341    3.4824 H   0  0
   -7.2783   -2.9364   -3.6972 H   0  0
   -8.5443   -2.3322   -4.8505 H   0  0
   -8.2662   -4.0666   -4.7034 H   0  0
  1  2  1  0
  2  3  2  0
  3  4  1  0
  4  5  2  0
  5  6  1  0
  1  6  2  0
  5  7  1  0
  7  8  1  0
  8  9  1  0
  9 10  1  0
 12 13  1  0
 14 10  1  0
 13 15  1  0
 17 18  1  0
 18 19  2  0
 19 20  1  0
 16 20  2  0
 16 15  1  0
 15 17  2  0
 13 14  2  0
 11 12  2  0
 10 11  1  0
  1 21  1  0
 21 22  1  0
  2 23  1  0
 24 25  1  0
 26 25  1  0
 26 27  1  0
 28 27  1  0
 29 28  1  0
 29 30  1  0
 31 29  1  0
 31 32  1  0
 33 31  1  0
 33 26  1  0
 33 34  1  0
 34 35  1  0
 35 36  1  0
 35 37  2  0
 32 38  1  0
 38 39  2  0
 38 40  1  0
 30 41  1  0
 41 42  2  0
 41 43  1  0
 24 44  1  0
 44 45  1  0
 44 46  2  0
 28 23  1  0
  3 47  1  0
  4 48  1  0
  6 49  1  0
  7 50  1  0
  7 51  1  0
  8 52  1  0
  8 53  1  0
  9 54  1  0
  9 55  1  0
 14 56  1  0
 16 57  1  0
 17 58  1  0
 18 59  1  0
 19 60  1  0
 20 61  1  0
 22 62  1  0
 22 63  1  0
 22 64  1  0
 25 65  1  0
 25 66  1  0
 26 67  1  0
 28 68  1  0
 29 69  1  0
 31 70  1  0
 33 71  1  0
 36 72  1  0
 36 73  1  0
 36 74  1  0
 40 75  1  0
 40 76  1  0
 40 77  1  0
 43 78  1  0
 43 79  1  0
 43 80  1  0
 45 81  1  0
 45 82  1  0
 45 83  1  0
M  END
> <Name>
TS2019_TS22

> <Clean Energy>
99.9135

$$$$
HAB2019_1
  SciTegic12132405553D

 24 24  0  0  0  0            999 V2000
    1.0725   -2.8637    3.2125 C   0  0
    1.2955   -2.2459    1.8972 C   0  0
    2.5214   -2.1022    1.4050 C   0  0
    3.6670   -2.5550    2.1593 C   0  0
    3.4967   -3.1172    3.3502 C   0  0
    2.1526   -3.2869    3.9165 C   0  0
   -0.3192   -2.9526    3.6204 O   0  0
   -0.6391   -3.5399    4.8905 C   0  0
    2.0807   -3.8881    5.1736 O   0  0
    2.7198   -1.4694    0.0669 C   0  0
    2.5090    0.0074    0.1911 C   0  0
    2.8122    0.8060   -0.8280 C   0  0
    0.4642   -1.9086    1.3320 H   0  0
    4.6428   -2.4379    1.7616 H   0  0
    4.3418   -3.4474    3.8988 H   0  0
   -1.7287   -3.5250    5.0351 H   0  0
   -0.1562   -2.9644    5.6939 H   0  0
   -0.2814   -4.5796    4.9156 H   0  0
    2.9927   -4.1090    5.4852 H   0  0
    3.7226   -1.6580   -0.3412 H   0  0
    1.9535   -1.8279   -0.6343 H   0  0
    2.1268    0.4168    1.0922 H   0  0
    3.2002    0.3943   -1.7255 H   0  0
    2.6669    1.8534   -0.7430 H   0  0
  1  2  1  0
  2  3  2  0
  3  4  1  0
  4  5  2  0
  5  6  1  0
  1  6  2  0
  1  7  1  0
  7  8  1  0
  6  9  1  0
  3 10  1  0
 10 11  1  0
 11 12  2  0
  2 13  1  0
  4 14  1  0
  5 15  1  0
  8 16  1  0
  8 17  1  0
  8 18  1  0
  9 19  1  0
 10 20  1  0
 10 21  1  0
 11 22  1  0
 12 23  1  0
 12 24  1  0
M  END
> <Name>
HAB2019_1

> <Clean Energy>
24.3987007141113

$$$$
HAB2019_1'
  SciTegic12132405553D

 26 26  0  0  0  0            999 V2000
    2.0956    2.0914   -3.8040 C   0  0
    2.0544    1.5507   -2.4421 C   0  0
    0.9196    1.5052   -1.7541 C   0  0
   -0.3065    2.0004   -2.3353 C   0  0
   -0.3004    2.4992   -3.5663 C   0  0
    0.9419    2.5527   -4.3493 C   0  0
    3.4038    2.0610   -4.4321 O   0  0
    3.5457    2.5464   -5.7730 C   0  0
    0.8439    3.0871   -5.6343 O   0  0
    0.9105    0.9247   -0.3820 C   0  0
    0.8783   -0.6016   -0.5436 C   0  0
    0.8790   -1.2637    0.8370 C   0  0
    2.9454    1.1803   -2.0019 H   0  0
   -1.2093    1.9640   -1.7803 H   0  0
   -1.2029    2.8606   -3.9895 H   0  0
    4.5949    2.4488   -6.0860 H   0  0
    3.2477    3.6035   -5.8165 H   0  0
    2.9074    1.9548   -6.4459 H   0  0
   -0.0922    3.3525   -5.8094 H   0  0
    1.8393    1.1790    0.1477 H   0  0
    0.0164    1.2436    0.1723 H   0  0
   -0.0296   -0.8909   -1.0913 H   0  0
    1.7648   -0.9292   -1.1050 H   0  0
    0.8575   -2.3566    0.7171 H   0  0
   -0.0067   -0.9374    1.3990 H   0  0
    1.7884   -0.9712    1.3808 H   0  0
  1  2  1  0
  2  3  2  0
  3  4  1  0
  4  5  2  0
  5  6  1  0
  1  6  2  0
  1  7  1  0
  7  8  1  0
  6  9  1  0
  3 10  1  0
 10 11  1  0
 11 12  1  0
  2 13  1  0
  4 14  1  0
  5 15  1  0
  8 16  1  0
  8 17  1  0
  8 18  1  0
  9 19  1  0
 10 20  1  0
 10 21  1  0
 11 22  1  0
 11 23  1  0
 12 24  1  0
 12 25  1  0
 12 26  1  0
M  END
> <Name>
HAB2019_1'

> <Clean Energy>
14.024

$$$$
HAB2019_2a
  SciTegic12132405553D

 26 26  0  0  0  0            999 V2000
    1.6455   -2.1104    3.9419 C   0  0
    1.2399   -1.7234    2.5583 C   0  0
    2.1508   -1.6685    1.5909 C   0  0
    3.5418   -1.9875    1.8632 C   0  0
    3.9356   -2.3398    3.0852 C   0  0
    2.9212   -2.4029    4.1921 C   0  0
    0.7346   -2.1856    5.0412 O   0  0
   -0.6294   -1.8551    4.7361 C   0  0
    3.2510   -2.7592    5.5082 O   0  0
    1.7513   -1.2730    0.2038 C   0  0
    1.1222    0.0868    0.2677 C   0  0
    1.7661    1.1387   -0.2287 C   0  0
    5.3124   -2.6389    3.2741 N   0  3
    6.1398   -2.5592    2.2425 O   0  5
    5.7406   -2.9570    4.3175 O   0  0
    0.2354   -1.4868    2.3248 H   0  0
    4.2481   -1.9384    1.0749 H   0  0
   -1.2374   -1.9437    5.6475 H   0  0
   -1.0153   -2.5458    3.9719 H   0  0
   -0.6839   -0.8219    4.3610 H   0  0
    4.1923   -2.9527    5.5998 H   0  0
    2.6192   -1.2867   -0.4710 H   0  0
    0.9601   -1.9682   -0.1096 H   0  0
    0.1719    0.2121    0.7237 H   0  0
    2.7219    1.0138   -0.6710 H   0  0
    1.3252    2.1023   -0.1786 H   0  0
  1  2  1  0
  2  3  2  0
  3  4  1  0
  4  5  2  0
  5  6  1  0
  1  6  2  0
  1  7  1  0
  7  8  1  0
  6  9  1  0
  3 10  1  0
 10 11  1  0
 11 12  2  0
  5 13  1  0
 13 14  1  0
 13 15  2  0
  2 16  1  0
  4 17  1  0
  8 18  1  0
  8 19  1  0
  8 20  1  0
  9 21  1  0
 10 22  1  0
 10 23  1  0
 11 24  1  0
 12 25  1  0
 12 26  1  0
M  CHG  2  13   1  14  -1
M  END
> <Name>
HAB2019_2a

> <Clean Energy>
22.7465

$$$$
HAB2019_2a'
  SciTegic12132405553D

 26 26  0  0  0  0            999 V2000
    2.4403   -3.1905   -3.3054 C   0  0
    2.2998   -2.8326   -1.8635 C   0  0
    2.6123   -1.6089   -1.4380 C   0  0
    3.1197   -0.5850   -2.4218 C   0  0
    3.2323   -0.9302   -3.7037 C   0  0
    2.8817   -2.2709   -4.1573 C   0  0
    2.1262   -4.4785   -3.8396 O   0  0
    3.0152   -2.5928   -5.5011 O   0  0
    3.5006    0.7542   -2.0739 N   0  3
    1.6574   -5.4442   -2.8866 C   0  0
    3.8678    1.4739   -2.9273 O   0  0
    3.4790    1.2146   -0.8341 O   0  5
    2.4396   -1.3188    0.0359 C   0  0
    1.2325   -0.4280    0.2371 C   0  0
    0.0375   -0.7662   -0.2467 C   0  0
    1.9475   -3.5352   -1.1555 H   0  0
    3.5873   -0.2220   -4.4074 H   0  0
    3.3535   -1.8051   -5.9949 H   0  0
    1.4485   -6.3922   -3.4027 H   0  0
    0.7359   -5.0774   -2.4110 H   0  0
    2.4283   -5.6098   -2.1191 H   0  0
    2.2622   -2.2717    0.5542 H   0  0
    3.3158   -0.7885    0.4313 H   0  0
    1.3349    0.4692    0.7933 H   0  0
   -0.0850   -1.6699   -0.7873 H   0  0
   -0.7953   -0.1289   -0.0872 H   0  0
  1  2  1  0
  2  3  2  0
  3  4  1  0
  4  5  2  0
  5  6  1  0
  1  6  2  0
  1  7  1  0
  6  8  1  0
  4  9  1  0
  7 10  1  0
  9 12  1  0
  9 11  2  0
  3 13  1  0
 13 14  1  0
 14 15  2  0
  2 16  1  0
  5 17  1  0
  8 18  1  0
 10 19  1  0
 10 20  1  0
 10 21  1  0
 13 22  1  0
 13 23  1  0
 14 24  1  0
 15 25  1  0
 15 26  1  0
M  CHG  2   9   1  12  -1
M  END
> <Name>
HAB2019_2a'

> <Clean Energy>
23.7655

$$$$
HAB2019_2b
  SciTegic12132405553D

 28 28  0  0  0  0            999 V2000
    1.3260    2.6526    3.7691 C   0  0
    1.7987    1.8720    2.5866 C   0  0
    1.2720    2.1006    1.3883 C   0  0
    0.2372    3.1041    1.2107 C   0  0
   -0.2051    3.8192    2.2437 C   0  0
    0.3788    3.5756    3.6069 C   0  0
    1.8347    2.4712    5.0926 O   0  0
    2.8490    1.4650    5.2317 C   0  0
   -0.0285    4.2835    4.7478 O   0  0
    1.7492    1.3233    0.2055 C   0  0
    1.0892   -0.0608    0.2363 C   0  0
    1.5777   -0.8691   -0.9732 C   0  0
   -1.2179    4.7840    1.9927 N   0  3
   -1.6792    4.9331    0.7600 O   0  5
   -1.6597    5.4556    2.8456 O   0  0
    2.5518    1.1337    2.6764 H   0  0
   -0.1669    3.2664    0.2450 H   0  0
    3.1662    1.4120    6.2830 H   0  0
    3.7141    1.7218    4.6028 H   0  0
    2.4453    0.4889    4.9236 H   0  0
   -0.7146    4.9302    4.5403 H   0  0
    1.4641    1.8301   -0.7270 H   0  0
    2.8343    1.1647    0.2718 H   0  0
    1.3671   -0.5822    1.1636 H   0  0
   -0.0031    0.0512    0.1902 H   0  0
    1.1127   -1.8650   -0.9621 H   0  0
    2.6712   -0.9728   -0.9246 H   0  0
    1.3001   -0.3436   -1.8983 H   0  0
  1  2  1  0
  2  3  2  0
  3  4  1  0
  4  5  2  0
  5  6  1  0
  1  6  2  0
  1  7  1  0
  7  8  1  0
  6  9  1  0
  3 10  1  0
 10 11  1  0
  5 13  1  0
 13 14  1  0
 13 15  2  0
 11 12  1  0
  2 16  1  0
  4 17  1  0
  8 18  1  0
  8 19  1  0
  8 20  1  0
  9 21  1  0
 10 22  1  0
 10 23  1  0
 11 24  1  0
 11 25  1  0
 12 26  1  0
 12 27  1  0
 12 28  1  0
M  CHG  2  13   1  14  -1
M  END
> <Name>
HAB2019_2b

> <Clean Energy>
10.6924

$$$$
HAB2019_2b'
  SciTegic12132405553D

 28 28  0  0  0  0            999 V2000
    1.3581    2.7420    3.7448 C   0  0
    1.8395    1.9091    2.6045 C   0  0
    1.3311    2.0758    1.3860 C   0  0
    0.2608    3.1130    1.1580 C   0  0
   -0.1512    3.8433    2.1934 C   0  0
    0.4143    3.6517    3.5244 C   0  0
    1.8532    2.6235    5.0805 O   0  0
   -0.0413    4.4323    4.5782 O   0  0
   -0.3584    3.3765   -0.1101 N   0  3
    2.8706    1.6291    5.2749 C   0  0
   -1.1843    4.2107   -0.1694 O   0  0
   -0.0475    2.7259   -1.2185 O   0  5
    1.8707    1.1944    0.2965 C   0  0
    0.9388   -0.0176    0.1700 C   0  0
    1.4648   -0.9386   -0.9372 C   0  0
    2.5886    1.1740    2.7390 H   0  0
   -0.9029    4.5766    2.0511 H   0  0
   -0.7370    5.0537    4.2490 H   0  0
    3.1764    1.6236    6.3307 H   0  0
    3.7413    1.8633    4.6446 H   0  0
    2.4754    0.6384    5.0049 H   0  0
    1.8701    1.7203   -0.6636 H   0  0
    2.8725    0.8287    0.5614 H   0  0
    0.9142   -0.5633    1.1238 H   0  0
   -0.0746    0.3244   -0.0846 H   0  0
    0.8023   -1.8104   -1.0350 H   0  0
    2.4797   -1.2743   -0.6804 H   0  0
    1.4902   -0.3871   -1.8880 H   0  0
  1  2  1  0
  2  3  2  0
  3  4  1  0
  4  5  2  0
  5  6  1  0
  1  6  2  0
  1  7  1  0
  6  8  1  0
  4  9  1  0
  7 10  1  0
  9 12  1  0
  9 11  2  0
  3 13  1  0
 13 14  1  0
 14 15  1  0
  2 16  1  0
  5 17  1  0
  8 18  1  0
 10 19  1  0
 10 20  1  0
 10 21  1  0
 13 22  1  0
 13 23  1  0
 14 24  1  0
 14 25  1  0
 15 26  1  0
 15 27  1  0
 15 28  1  0
M  CHG  2   9   1  12  -1
M  END
> <Name>
HAB2019_2b'

> <Clean Energy>
11.6164

$$$$
HAB2019_3a
  SciTegic12132405553D

 26 26  0  0  0  0            999 V2000
    3.7908   -1.5338    3.0011 C   0  0
    3.3503   -1.4687    1.6024 C   0  0
    2.0829   -1.6788    1.2659 C   0  0
    1.1007   -1.9828    2.2776 C   0  0
    1.4530   -2.0532    3.5555 C   0  0
    2.8725   -1.8183    3.9614 C   0  0
    0.4537   -2.3528    4.4960 N   0  0
    3.1992   -1.9021    5.3256 O   0  0
    5.2097   -1.2762    3.1990 O   0  0
    5.7584   -1.3113    4.5249 C   0  0
    1.6676   -1.6047   -0.1725 C   0  0
    0.8750   -0.3408   -0.3681 C   0  0
    1.4547    0.8491   -0.2190 C   0  0
    4.0578   -1.2472    0.8447 H   0  0
    0.0916   -2.1509    1.9987 H   0  0
   -0.4790   -2.5026    4.1866 H   0  0
    0.6632   -2.4170    5.4568 H   0  0
    2.4149   -2.1142    5.8610 H   0  0
    6.8352   -1.0945    4.4800 H   0  0
    5.6046   -2.3095    4.9603 H   0  0
    5.2594   -0.5559    5.1495 H   0  0
    2.5735   -1.5651   -0.7936 H   0  0
    1.0119   -2.4514   -0.4190 H   0  0
   -0.1463   -0.3979   -0.6476 H   0  0
    2.4809    0.9114    0.0445 H   0  0
    0.8905    1.7351   -0.3654 H   0  0
  1  2  1  0
  2  3  2  0
  3  4  1  0
  4  5  2  0
  5  6  1  0
  1  6  2  0
  5  7  1  0
  6  8  1  0
  1  9  1  0
  9 10  1  0
  3 11  1  0
 11 12  1  0
 12 13  2  0
  2 14  1  0
  4 15  1  0
  7 16  1  0
  7 17  1  0
  8 18  1  0
 10 19  1  0
 10 20  1  0
 10 21  1  0
 11 22  1  0
 11 23  1  0
 12 24  1  0
 13 25  1  0
 13 26  1  0
M  END
> <Name>
HAB2019_3a

> <Clean Energy>
26.1659

$$$$
HAB2019_3a'
  SciTegic12132405553D

 26 26  0  0  0  0            999 V2000
    3.7853   -1.4737    2.9956 C   0  0
    3.3513   -1.3891    1.5960 C   0  0
    2.0980   -1.6552    1.2399 C   0  0
    1.1173   -2.0488    2.2616 C   0  0
    1.4960   -2.1297    3.5316 C   0  0
    2.8753   -1.8349    3.9338 C   0  0
    5.1839   -1.1501    3.2219 O   0  0
    3.1606   -1.9516    5.2946 O   0  0
   -0.2220   -2.3471    1.9390 N   0  0
    5.7077   -1.2026    4.5572 C   0  0
    1.7157   -1.5493   -0.2122 C   0  0
    0.9348   -0.2764   -0.3975 C   0  0
    1.5345    0.9064   -0.2773 C   0  0
    4.0518   -1.1068    0.8520 H   0  0
    0.7881   -2.4136    4.2680 H   0  0
    2.3439   -2.2265    5.7795 H   0  0
   -0.5466   -2.3040    1.0046 H   0  0
   -0.8507   -2.6075    2.6631 H   0  0
    6.7725   -0.9302    4.5422 H   0  0
    5.5970   -2.2217    4.9560 H   0  0
    5.1586   -0.4952    5.1958 H   0  0
    2.6362   -1.4963   -0.8102 H   0  0
    1.0622   -2.3882   -0.4896 H   0  0
   -0.0958   -0.3225   -0.6431 H   0  0
    2.5688    0.9562   -0.0448 H   0  0
    0.9784    1.7988   -0.4149 H   0  0
  1  2  1  0
  2  3  2  0
  3  4  1  0
  4  5  2  0
  5  6  1  0
  1  6  2  0
  1  7  1  0
  6  8  1  0
  4  9  1  0
  7 10  1  0
  3 11  1  0
 11 12  1  0
 12 13  2  0
  2 14  1  0
  5 15  1  0
  8 16  1  0
  9 17  1  0
  9 18  1  0
 10 19  1  0
 10 20  1  0
 10 21  1  0
 11 22  1  0
 11 23  1  0
 12 24  1  0
 13 25  1  0
 13 26  1  0
M  END
> <Name>
HAB2019_3a'

> <Clean Energy>
26.0156

$$$$
HAB2019_3b
  SciTegic12132405553D

 28 28  0  0  0  0            999 V2000
    1.6002    2.1893   -3.6475 C   0  0
    2.0403    1.6508   -2.3550 C   0  0
    1.3790    1.9155   -1.2352 C   0  0
    0.2026    2.7472   -1.2610 C   0  0
   -0.2329    3.2580   -2.4065 C   0  0
    0.4921    2.9749   -3.6831 C   0  0
   -1.3840    4.0622   -2.3713 N   0  0
   -0.0053    3.5354   -4.8720 O   0  0
    2.4331    1.8024   -4.7767 O   0  0
    2.1012    2.2659   -6.0938 C   0  0
    1.8543    1.3475    0.0600 C   0  0
    1.3118   -0.0824    0.1733 C   0  0
    1.7896   -0.6956    1.4952 C   0  0
    2.9035    1.0363   -2.3151 H   0  0
   -0.3174    2.9522   -0.3601 H   0  0
   -1.8381    4.2274   -1.5026 H   0  0
   -1.7475    4.4651   -3.1940 H   0  0
   -0.8029    4.0660   -4.7017 H   0  0
    2.8352    1.8760   -6.8133 H   0  0
    2.1197    3.3653   -6.1124 H   0  0
    1.0971    1.9094   -6.3667 H   0  0
    2.9512    1.2844    0.0685 H   0  0
    1.4670    1.9349    0.9043 H   0  0
    0.2131   -0.0608    0.1513 H   0  0
    1.6845   -0.6851   -0.6671 H   0  0
    1.4054   -1.7219    1.5836 H   0  0
    1.4174   -0.0898    2.3336 H   0  0
    2.8887   -0.7113    1.5133 H   0  0
  1  2  1  0
  2  3  2  0
  3  4  1  0
  4  5  2  0
  5  6  1  0
  1  6  2  0
  5  7  1  0
  6  8  1  0
  1  9  1  0
  9 10  1  0
  3 11  1  0
 11 12  1  0
 12 13  1  0
  2 14  1  0
  4 15  1  0
  7 16  1  0
  7 17  1  0
  8 18  1  0
 10 19  1  0
 10 20  1  0
 10 21  1  0
 11 22  1  0
 11 23  1  0
 12 24  1  0
 12 25  1  0
 13 26  1  0
 13 27  1  0
 13 28  1  0
M  END
> <Name>
HAB2019_3b

> <Clean Energy>
14.0852

$$$$
HAB2019_3b'
  SciTegic12132405553D

 28 28  0  0  0  0            999 V2000
    2.3145    3.0839    3.1291 C   0  0
    2.4822    2.2139    1.9585 C   0  0
    1.5458    2.1262    1.0201 C   0  0
    0.3100    2.9113    1.1443 C   0  0
    0.1443    3.7024    2.1978 C   0  0
    1.1723    3.8066    3.2390 C   0  0
    3.4266    3.0701    4.0648 O   0  0
    0.8920    4.6681    4.3002 O   0  0
   -0.7148    2.8541    0.1781 N   0  0
    3.3606    3.8872    5.2430 C   0  0
    1.7815    1.2173   -0.1471 C   0  0
    1.1230   -0.1303    0.1688 C   0  0
    1.3434   -1.0830   -1.0121 C   0  0
    3.3697    1.6424    1.8595 H   0  0
   -0.7475    4.2687    2.2875 H   0  0
    0.0046    5.0818    4.1624 H   0  0
   -0.6337    2.2770   -0.6224 H   0  0
   -1.5337    3.4026    0.3040 H   0  0
    4.2796    3.7536    5.8313 H   0  0
    2.4924    3.5896    5.8490 H   0  0
    3.2630    4.9437    4.9530 H   0  0
    1.2996    1.6188   -1.0487 H   0  0
    2.8575    1.0492   -0.2936 H   0  0
    1.5738   -0.5559    1.0765 H   0  0
    0.0450    0.0172    0.3274 H   0  0
    0.8736   -2.0527   -0.7940 H   0  0
    2.4222   -1.2239   -1.1702 H   0  0
    0.8932   -0.6511   -1.9173 H   0  0
  1  2  1  0
  2  3  2  0
  3  4  1  0
  4  5  2  0
  5  6  1  0
  1  6  2  0
  1  7  1  0
  6  8  1  0
  4  9  1  0
  7 10  1  0
  3 11  1  0
 11 12  1  0
 12 13  1  0
  2 14  1  0
  5 15  1  0
  8 16  1  0
  9 17  1  0
  9 18  1  0
 10 19  1  0
 10 20  1  0
 10 21  1  0
 11 22  1  0
 11 23  1  0
 12 24  1  0
 12 25  1  0
 13 26  1  0
 13 27  1  0
 13 28  1  0
M  END
> <Name>
HAB2019_3b'

> <Clean Energy>
13.7718

$$$$
HAB2019_4a
  SciTegic12132405553D

 46 47  0  0  0  0            999 V2000
    7.6318    2.4416    1.3241 C   0  0
    6.7277    1.6613    1.9105 C   0  0
    5.8069    0.8681    1.1280 C   0  0
    5.8414    0.8983   -0.1955 C   0  0
    6.8128    1.7349   -0.9062 C   0  0
    7.6841    2.4871   -0.2065 C   0  0
    8.4873    3.1777    2.2249 O   0  0
    9.4819    4.0339    1.6572 C   0  0
    8.6228    3.2954   -0.8826 O   0  0
    4.8080    0.0001    1.8127 C   0  0
    5.4238   -1.3457    2.0223 C   0  0
    4.6625   -2.3718    2.3908 C   0  0
    6.7999    1.7185   -2.3306 N   0  0
    5.6903    0.7313   -3.1757 S   0  0
    4.2868    1.2168   -2.8664 O   0  0
    5.8267   -0.7214   -2.7595 O   0  0
    5.9753    0.8843   -4.9094 C   0  0
    6.1913    2.1987   -5.4997 C   0  0
    6.4068    2.3172   -6.8079 C   0  0
    6.4281    1.1078   -7.6717 C   0  0
    6.2286   -0.0847   -7.1121 C   0  0
    5.9929   -0.2023   -5.6748 C   0  0
    6.6522    1.1380   -9.0866 N   0  0
    6.8686    2.2505   -9.8070 C   0  0
    6.8949    3.3770   -9.3041 O   0  0
    7.0869    2.1149  -11.2824 C   0  0
    6.6815    1.6199    2.9688 H   0  0
    5.1557    0.3062   -0.7400 H   0  0
   10.0481    4.5205    2.4642 H   0  0
    8.9960    4.8015    1.0376 H   0  0
   10.1681    3.4392    1.0368 H   0  0
    8.5386    3.2225   -1.8429 H   0  0
    3.8979   -0.1358    1.2118 H   0  0
    4.5593    0.4038    2.8040 H   0  0
    6.4641   -1.4836    1.8657 H   0  0
    3.6212   -2.2322    2.5374 H   0  0
    5.0961   -3.3290    2.5360 H   0  0
    7.4291    2.2661   -2.8468 H   0  0
    6.1770    3.0626   -4.8843 H   0  0
    6.5613    3.2748   -7.2186 H   0  0
    6.2412   -0.9561   -7.7160 H   0  0
    5.8354   -1.1570   -5.2408 H   0  0
    6.6470    0.2699   -9.5710 H   0  0
    6.7755    1.1193  -11.6305 H   0  0
    8.1590    2.2519  -11.4840 H   0  0
    6.5561    2.9202  -11.8102 H   0  0
  1  2  2  0
  2  3  1  0
  3  4  2  0
  4  5  1  0
  5  6  2  0
  1  6  1  0
  1  7  1  0
  7  8  1  0
  6  9  1  0
 10 11  1  0
  3 10  1  0
 11 12  2  0
  5 13  1  0
 14 15  2  0
 14 16  2  0
 14 17  1  0
 13 14  1  0
 18 19  2  0
 19 20  1  0
 20 21  2  0
 21 22  1  0
 17 18  1  0
 17 22  2  0
 20 23  1  0
 24 25  2  0
 24 26  1  0
 23 24  1  0
  2 27  1  0
  4 28  1  0
  8 29  1  0
  8 30  1  0
  8 31  1  0
  9 32  1  0
 10 33  1  0
 10 34  1  0
 11 35  1  0
 12 36  1  0
 12 37  1  0
 13 38  1  0
 18 39  1  0
 19 40  1  0
 21 41  1  0
 22 42  1  0
 23 43  1  0
 26 44  1  0
 26 45  1  0
 26 46  1  0
M  END
> <Name>
HAB2019_4a

> <Clean Energy>
42.2279

$$$$
HAB2019_4a'
  SciTegic12132405553D

 46 47  0  0  0  0            999 V2000
    0.4316   -1.2976    0.2362 C   0  0
    1.3187   -0.1392    0.1194 C   0  0
    2.6264   -0.2387    0.3342 C   0  0
    3.2149   -1.5464    0.6958 C   0  0
    2.4138   -2.6036    0.8063 C   0  0
    0.9705   -2.4942    0.5742 C   0  0
   -0.9681   -1.0215   -0.0377 O   0  0
    0.2322   -3.6693    0.7194 O   0  0
    4.6149   -1.6860    0.9156 N   0  0
   -1.9200   -2.0920    0.0334 C   0  0
    3.4730    1.0014    0.1739 C   0  0
    3.0913    1.9590    1.2590 C   0  0
    3.6545    1.8617    2.4599 C   0  0
    5.3664   -3.2267    1.0185 S   0  0
    4.7019   -4.2260    0.0896 O   0  0
    5.2960   -3.7719    2.4319 O   0  0
    7.0568   -3.0689    0.5215 C   0  0
    7.5301   -1.8108   -0.0380 C   0  0
    7.8934   -4.0945    0.6452 C   0  0
    9.2919   -3.9590    0.2200 C   0  0
    9.7301   -2.8007   -0.2952 C   0  0
    8.7950   -1.6837   -0.4234 C   0  0
   11.0748   -2.5669   -0.7420 N   0  0
   12.0718   -3.4671   -0.7205 C   0  0
   11.9274   -4.6197   -0.3028 O   0  0
   13.4156   -3.0471   -1.2294 C   0  0
    0.9078    0.8008   -0.1486 H   0  0
    2.8191   -3.5430    1.0676 H   0  0
    0.8380   -4.4099    0.9688 H   0  0
    5.1858   -0.8891    0.9561 H   0  0
   -2.9209   -1.7058   -0.2058 H   0  0
   -1.9239   -2.5149    1.0480 H   0  0
   -1.6476   -2.8739   -0.6913 H   0  0
    4.5326    0.7415    0.2523 H   0  0
    3.2134    1.4753   -0.7822 H   0  0
    2.3757    2.7181    1.0675 H   0  0
    4.3719    1.1030    2.6484 H   0  0
    3.3855    2.5424    3.2281 H   0  0
    6.8640   -0.9932   -0.1397 H   0  0
    7.5485   -5.0128    1.0488 H   0  0
    9.9373   -4.7818    0.3253 H   0  0
    9.1299   -0.7636   -0.8298 H   0  0
   11.2847   -1.6628   -1.0985 H   0  0
   14.0373   -3.9250   -1.4550 H   0  0
   13.9055   -2.4513   -0.4458 H   0  0
   13.2922   -2.3911   -2.1037 H   0  0
  1  2  1  0
  2  3  2  0
  3  4  1  0
  4  5  2  0
  5  6  1  0
  1  6  2  0
  1  7  1  0
  6  8  1  0
  4  9  1  0
  7 10  1  0
  3 11  1  0
 11 12  1  0
 12 13  2  0
  9 14  1  0
 14 17  1  0
 14 15  2  0
 14 16  2  0
 19 20  1  0
 20 21  2  0
 21 22  1  0
 18 22  2  0
 18 17  1  0
 17 19  2  0
 21 23  1  0
 23 24  1  0
 24 26  1  0
 24 25  2  0
  2 27  1  0
  5 28  1  0
  8 29  1  0
  9 30  1  0
 10 31  1  0
 10 32  1  0
 10 33  1  0
 11 34  1  0
 11 35  1  0
 12 36  1  0
 13 37  1  0
 13 38  1  0
 18 39  1  0
 19 40  1  0
 20 41  1  0
 22 42  1  0
 23 43  1  0
 26 44  1  0
 26 45  1  0
 26 46  1  0
M  END
> <Name>
HAB2019_4a'

> <Clean Energy>
46.9628

$$$$
HAB2019_4b
  SciTegic12132405553D

 48 49  0  0  0  0            999 V2000
    2.0842    2.0975   -3.5415 C   0  0
    2.5343    1.7117   -2.3508 C   0  0
    1.6921    1.7734   -1.1778 C   0  0
    0.4461    2.2172   -1.2605 C   0  0
   -0.1140    2.6560   -2.5429 C   0  0
    0.6465    2.6119   -3.6540 C   0  0
    3.0317    1.9818   -4.6253 O   0  0
    2.6093    2.3789   -5.9325 C   0  0
    0.1158    3.0324   -4.8928 O   0  0
    2.2301    1.3294    0.1398 C   0  0
    1.8658   -0.1492    0.3173 C   0  0
    2.4041   -0.6391    1.6672 C   0  0
   -1.4611    3.1169   -2.5688 N   0  0
   -2.4053    3.1328   -1.1457 S   0  0
   -1.7981    4.1328   -0.1802 O   0  0
   -2.4454    1.7600   -0.5006 O   0  0
   -4.0413    3.6499   -1.5552 C   0  0
   -4.2434    4.8081   -2.4154 C   0  0
   -5.4755    5.1987   -2.7338 C   0  0
   -6.6507    4.4538   -2.2120 C   0  0
   -6.4447    3.3986   -1.4253 C   0  0
   -5.0868    2.9786   -1.0829 C   0  0
   -8.0107    4.7984   -2.5045 N   0  0
   -8.3937    5.8246   -3.2819 C   0  0
   -7.5896    6.5846   -3.8283 O   0  0
   -9.8584    6.0530   -3.4940 C   0  0
    3.5276    1.3525   -2.2598 H   0  0
   -0.1469    2.2510   -0.3857 H   0  0
    3.4351    2.2324   -6.6430 H   0  0
    2.3225    3.4405   -5.9194 H   0  0
    1.7485    1.7683   -6.2419 H   0  0
   -0.7998    3.3302   -4.8133 H   0  0
    1.7554    1.8908    0.9564 H   0  0
    3.3254    1.4168    0.1579 H   0  0
    0.7727   -0.2639    0.2933 H   0  0
    2.3151   -0.7378   -0.4950 H   0  0
    2.1464   -1.6993    1.8020 H   0  0
    1.9546   -0.0453    2.4759 H   0  0
    3.4968   -0.5203    1.6885 H   0  0
   -1.8708    3.4246   -3.4046 H   0  0
   -3.4056    5.3402   -2.7898 H   0  0
   -5.6032    6.0377   -3.3574 H   0  0
   -7.2738    2.8572   -1.0462 H   0  0
   -4.9352    2.1352   -0.4583 H   0  0
   -8.7240    4.2342   -2.1030 H   0  0
  -10.4493    5.4919   -2.7554 H   0  0
  -10.1160    5.7061   -4.5051 H   0  0
  -10.0734    7.1307   -3.4605 H   0  0
  1  2  2  0
  2  3  1  0
  3  4  2  0
  4  5  1  0
  5  6  2  0
  1  6  1  0
  1  7  1  0
  7  8  1  0
  6  9  1  0
 10 11  1  0
  3 10  1  0
  5 13  1  0
 14 15  2  0
 14 16  2  0
 14 17  1  0
 13 14  1  0
 18 19  2  0
 19 20  1  0
 20 21  2  0
 21 22  1  0
 17 18  1  0
 17 22  2  0
 20 23  1  0
 24 25  2  0
 24 26  1  0
 23 24  1  0
 11 12  1  0
  2 27  1  0
  4 28  1  0
  8 29  1  0
  8 30  1  0
  8 31  1  0
  9 32  1  0
 10 33  1  0
 10 34  1  0
 11 35  1  0
 11 36  1  0
 12 37  1  0
 12 38  1  0
 12 39  1  0
 13 40  1  0
 18 41  1  0
 19 42  1  0
 21 43  1  0
 22 44  1  0
 23 45  1  0
 26 46  1  0
 26 47  1  0
 26 48  1  0
M  END
> <Name>
HAB2019_4b

> <Clean Energy>
31.6583

$$$$
HAB2019_4b'
  SciTegic12132405553D

 48 49  0  0  0  0            999 V2000
    4.4948    5.4087    0.7002 C   0  0
    3.4945    5.3773    1.7705 C   0  0
    3.2663    4.2749    2.4750 C   0  0
    4.0278    3.0453    2.1898 C   0  0
    4.9376    3.0631    1.2181 C   0  0
    5.1932    4.2775    0.4358 C   0  0
    4.6279    6.6894    0.0259 O   0  0
    6.1700    4.1775   -0.5553 O   0  0
    3.8036    1.8527    2.9402 N   0  0
    5.5847    6.8265   -1.0353 C   0  0
    2.2316    4.3211    3.5605 C   0  0
    2.9617    4.4476    4.9053 C   0  0
    1.9266    4.4801    6.0351 C   0  0
    4.7776    0.4621    2.7232 S   0  0
    6.2431    0.8480    2.6469 O   0  0
    4.4095   -0.2617    1.4423 O   0  0
    4.5729   -0.6229    4.1034 C   0  0
    3.9425   -0.1387    5.3244 C   0  0
    5.0028   -1.8782    4.0322 C   0  0
    4.8468   -2.7771    5.1784 C   0  0
    4.2692   -2.3379    6.3064 C   0  0
    3.7977   -0.9507    6.3675 C   0  0
    4.0774   -3.1414    7.4840 N   0  0
    4.4565   -4.4243    7.6231 C   0  0
    5.0222   -5.0585    6.7277 O   0  0
    4.1815   -5.1100    8.9254 C   0  0
    2.9416    6.2550    1.9893 H   0  0
    5.4892    2.1899    0.9999 H   0  0
    6.5399    3.2605   -0.5613 H   0  0
    3.0897    1.8220    3.6187 H   0  0
    5.5508    7.8533   -1.4264 H   0  0
    5.3429    6.1199   -1.8424 H   0  0
    6.5934    6.6155   -0.6504 H   0  0
    1.5714    5.1898    3.4304 H   0  0
    1.6691    3.3777    3.5863 H   0  0
    3.6276    3.5823    5.0434 H   0  0
    3.5538    5.3734    4.9170 H   0  0
    2.4417    4.5691    7.0022 H   0  0
    1.3379    3.5515    6.0158 H   0  0
    1.2585    5.3413    5.8929 H   0  0
    3.5989    0.8640    5.3819 H   0  0
    5.4643   -2.2285    3.1439 H   0  0
    5.1966   -3.7643    5.1001 H   0  0
    3.3383   -0.5916    7.2532 H   0  0
    3.6299   -2.7114    8.2608 H   0  0
    4.8403   -5.9815    9.0495 H   0  0
    3.1377   -5.4548    8.9145 H   0  0
    4.2809   -4.3928    9.7532 H   0  0
  1  2  1  0
  2  3  2  0
  3  4  1  0
  4  5  2  0
  5  6  1  0
  1  6  2  0
  1  7  1  0
  6  8  1  0
  4  9  1  0
  7 10  1  0
  3 11  1  0
 11 12  1  0
  9 14  1  0
 14 17  1  0
 14 15  2  0
 14 16  2  0
 19 20  1  0
 20 21  2  0
 21 22  1  0
 18 22  2  0
 18 17  1  0
 17 19  2  0
 21 23  1  0
 23 24  1  0
 24 26  1  0
 24 25  2  0
 12 13  1  0
  2 27  1  0
  5 28  1  0
  8 29  1  0
  9 30  1  0
 10 31  1  0
 10 32  1  0
 10 33  1  0
 11 34  1  0
 11 35  1  0
 12 36  1  0
 12 37  1  0
 13 38  1  0
 13 39  1  0
 13 40  1  0
 18 41  1  0
 19 42  1  0
 20 43  1  0
 22 44  1  0
 23 45  1  0
 26 46  1  0
 26 47  1  0
 26 48  1  0
M  END
> <Name>
HAB2019_4b'

> <Clean Energy>
33.1698

$$$$
HAB2019_5a
  SciTegic12132405553D

 41 42  0  0  0  0            999 V2000
    7.8130    2.6871    0.7701 C   0  0
    7.0738    1.8715    1.5430 C   0  0
    6.0196    1.0693    0.9451 C   0  0
    5.7821    1.1257   -0.3590 C   0  0
    6.5772    1.9991   -1.2178 C   0  0
    7.5441    2.7516   -0.6697 C   0  0
    8.8836    3.5169    1.2530 O   0  0
    9.1750    3.4462    2.6584 C   0  0
    8.3472    3.6141   -1.4350 O   0  0
    5.1987    0.1679    1.8020 C   0  0
    5.8970   -1.1543    1.8254 C   0  0
    5.3930   -2.1795    1.1437 C   0  0
    6.3247    2.0329   -2.6119 N   0  0
    5.2659    0.9245   -3.3681 S   0  0
    3.8517    1.4647   -3.2759 O   0  0
    5.3510   -0.4582   -2.7485 O   0  0
    5.7657    0.8452   -5.0548 C   0  0
    5.8524    2.0726   -5.8419 C   0  0
    6.2622    2.0238   -7.1064 C   0  0
    6.6232    0.7411   -7.7079 C   0  0
    6.5381   -0.3792   -6.9925 C   0  0
    6.0904   -0.3240   -5.6011 C   0  0
    7.0603    0.6918   -9.0272 N   0  0
    7.2338    1.7900    2.5840 H   0  0
    5.0101    0.5330   -0.7721 H   0  0
   10.0096    4.1234    2.8899 H   0  0
    9.4571    2.4162    2.9242 H   0  0
    8.2893    3.7472    3.2358 H   0  0
    8.1060    3.5904   -2.3748 H   0  0
    4.1978    0.0346    1.3680 H   0  0
    5.1938    0.5727    2.8242 H   0  0
    6.8005   -1.2685    2.3689 H   0  0
    4.4967   -2.0560    0.5889 H   0  0
    5.8881   -3.1172    1.1515 H   0  0
    6.8120    2.6634   -3.1829 H   0  0
    5.5933    3.0024   -5.4020 H   0  0
    6.3293    2.9147   -7.6776 H   0  0
    6.8022   -1.3084   -7.4296 H   0  0
    6.0347   -1.2131   -5.0252 H   0  0
    7.1288    1.5295   -9.5586 H   0  0
    7.3111   -0.1791   -9.4352 H   0  0
  1  2  2  0
  2  3  1  0
  3  4  2  0
  4  5  1  0
  5  6  2  0
  1  6  1  0
  1  7  1  0
  7  8  1  0
  6  9  1  0
 10 11  1  0
  3 10  1  0
  5 13  1  0
 14 15  2  0
 14 16  2  0
 14 17  1  0
 13 14  1  0
 18 19  2  0
 19 20  1  0
 20 21  2  0
 21 22  1  0
 17 18  1  0
 17 22  2  0
 20 23  1  0
 11 12  2  0
  2 24  1  0
  4 25  1  0
  8 26  1  0
  8 27  1  0
  8 28  1  0
  9 29  1  0
 10 30  1  0
 10 31  1  0
 11 32  1  0
 12 33  1  0
 12 34  1  0
 13 35  1  0
 18 36  1  0
 19 37  1  0
 21 38  1  0
 22 39  1  0
 23 40  1  0
 23 41  1  0
M  END
> <Name>
HAB2019_5a

> <Clean Energy>
28.1608

$$$$
HAB2019_5a'
  SciTegic12132405553D

 41 42  0  0  0  0            999 V2000
    0.4353   -1.3733    0.3180 C   0  0
    1.2392   -0.1587    0.1789 C   0  0
    2.5635   -0.1846    0.2811 C   0  0
    3.2599   -1.4626    0.5399 C   0  0
    2.5333   -2.5704    0.6749 C   0  0
    1.0716   -2.5442    0.5623 C   0  0
   -0.9970   -1.1767    0.1718 O   0  0
    0.4204   -3.7684    0.7167 O   0  0
    4.6861   -1.5216    0.6426 N   0  0
   -1.8741   -2.3069    0.2821 C   0  0
    3.3104    1.1104    0.1234 C   0  0
    3.1622    1.8549    1.4137 C   0  0
    4.0354    1.6578    2.3976 C   0  0
    5.5191   -3.0167    0.7981 S   0  0
    4.8905   -4.0758   -0.0884 O   0  0
    5.4847   -3.5096    2.2320 O   0  0
    7.1941   -2.8182    0.2725 C   0  0
    8.2080   -3.7936    0.6728 C   0  0
    7.5291   -1.7878   -0.5011 C   0  0
    8.9102   -1.6300   -0.9517 C   0  0
    9.8328   -2.5188   -0.5903 C   0  0
    9.4661   -3.6511    0.2608 C   0  0
   11.1465   -2.3709   -1.0248 N   0  0
    0.7531    0.7647   -0.0092 H   0  0
    3.0109   -3.4900    0.8655 H   0  0
    1.0885   -4.4775    0.8851 H   0  0
    5.2193   -0.6936    0.6006 H   0  0
   -2.9134   -1.9767    0.1436 H   0  0
   -1.7647   -2.7622    1.2769 H   0  0
   -1.6197   -3.0462   -0.4919 H   0  0
    4.3703    0.9084   -0.0659 H   0  0
    2.8234    1.7046   -0.6618 H   0  0
    2.3604    2.5372    1.5430 H   0  0
    4.8351    0.9723    2.2660 H   0  0
    3.9308    2.1842    3.3129 H   0  0
    7.9401   -4.6145    1.2885 H   0  0
    6.7915   -1.0837   -0.7942 H   0  0
    9.1770   -0.8104   -1.5692 H   0  0
   10.2025   -4.3582    0.5482 H   0  0
   11.3939   -1.6022   -1.6051 H   0  0
   11.8356   -3.0358   -0.7579 H   0  0
  1  2  1  0
  2  3  2  0
  3  4  1  0
  4  5  2  0
  5  6  1  0
  1  6  2  0
  1  7  1  0
  6  8  1  0
  4  9  1  0
  7 10  1  0
  3 11  1  0
 11 12  1  0
  9 14  1  0
 14 17  1  0
 14 15  2  0
 14 16  2  0
 19 20  1  0
 20 21  2  0
 21 22  1  0
 18 22  2  0
 18 17  1  0
 17 19  2  0
 21 23  1  0
 12 13  2  0
  2 24  1  0
  5 25  1  0
  8 26  1  0
  9 27  1  0
 10 28  1  0
 10 29  1  0
 10 30  1  0
 11 31  1  0
 11 32  1  0
 12 33  1  0
 13 34  1  0
 13 35  1  0
 18 36  1  0
 19 37  1  0
 20 38  1  0
 22 39  1  0
 23 40  1  0
 23 41  1  0
M  END
> <Name>
HAB2019_5a'

> <Clean Energy>
31.0134

$$$$
HAB2019_5b
  SciTegic12132405553D

 43 44  0  0  0  0            999 V2000
    1.6320    2.3832   -3.8040 C   0  0
    2.1927    1.8651   -2.6969 C   0  0
    1.4726    1.9000   -1.4362 C   0  0
    0.2603    2.4354   -1.3627 C   0  0
   -0.3729    2.9989   -2.5554 C   0  0
    0.2921    2.9760   -3.7215 C   0  0
    2.2554    2.3966   -5.1006 O   0  0
    3.5632    1.8054   -5.1971 C   0  0
   -0.2539    3.4992   -4.9052 O   0  0
    2.1047    1.3234   -0.2147 C   0  0
    1.5682   -0.1024   -0.0382 C   0  0
    2.2003   -0.7241    1.2133 C   0  0
   -1.6774    3.5515   -2.4624 N   0  0
   -2.5902    3.4629   -1.0206 S   0  0
   -2.1161    4.5586   -0.0854 O   0  0
   -2.4599    2.1044   -0.3570 O   0  0
   -4.2741    3.7443   -1.4584 C   0  0
   -4.6492    4.9677   -2.1647 C   0  0
   -5.9168    5.1693   -2.5169 C   0  0
   -6.9325    4.1669   -2.1952 C   0  0
   -6.5909    3.0547   -1.5478 C   0  0
   -5.1980    2.8330   -1.1631 C   0  0
   -8.2566    4.3738   -2.5688 N   0  0
    3.1533    1.4260   -2.7094 H   0  0
   -0.2453    2.4514   -0.4345 H   0  0
    3.9203    1.8813   -6.2341 H   0  0
    3.5107    0.7453   -4.9065 H   0  0
    4.2593    2.3363   -4.5316 H   0  0
   -1.1405    3.8666   -4.7595 H   0  0
    1.8112    1.8979    0.6747 H   0  0
    3.1962    1.2726   -0.3332 H   0  0
    0.4752   -0.0727    0.0778 H   0  0
    1.8280   -0.7039   -0.9207 H   0  0
    1.8195   -1.7467    1.3474 H   0  0
    1.9417   -0.1169    2.0925 H   0  0
    3.2929   -0.7510    1.0944 H   0  0
   -2.0952    3.9638   -3.2490 H   0  0
   -3.9103    5.6917   -2.3991 H   0  0
   -6.1906    6.0550   -3.0318 H   0  0
   -7.3280    2.3284   -1.3166 H   0  0
   -4.9224    1.9434   -0.6559 H   0  0
   -8.5112    5.2023   -3.0557 H   0  0
   -8.9458    3.6904   -2.3535 H   0  0
  1  2  2  0
  2  3  1  0
  3  4  2  0
  4  5  1  0
  5  6  2  0
  1  6  1  0
  1  7  1  0
  7  8  1  0
  6  9  1  0
 10 11  1  0
  3 10  1  0
  5 13  1  0
 14 15  2  0
 14 16  2  0
 14 17  1  0
 13 14  1  0
 18 19  2  0
 19 20  1  0
 20 21  2  0
 21 22  1  0
 17 18  1  0
 17 22  2  0
 20 23  1  0
 11 12  1  0
  2 24  1  0
  4 25  1  0
  8 26  1  0
  8 27  1  0
  8 28  1  0
  9 29  1  0
 10 30  1  0
 10 31  1  0
 11 32  1  0
 11 33  1  0
 12 34  1  0
 12 35  1  0
 12 36  1  0
 13 37  1  0
 18 38  1  0
 19 39  1  0
 21 40  1  0
 22 41  1  0
 23 42  1  0
 23 43  1  0
M  END
> <Name>
HAB2019_5b

> <Clean Energy>
15.7215

$$$$
HAB2019_5b'
  SciTegic12132405553D

 43 44  0  0  0  0            999 V2000
    0.5610    1.9336   -0.5924 C   0  0
    1.9065    2.4912   -0.7531 C   0  0
    2.8826    2.2056    0.1010 C   0  0
    2.6265    1.3082    1.2414 C   0  0
    1.4070    0.7976    1.3975 C   0  0
    0.3245    1.1102    0.4581 C   0  0
   -0.3940    2.3394   -1.6102 O   0  0
   -0.9104    0.5167    0.7215 O   0  0
    3.6611    0.9816    2.1667 N   0  0
   -1.7398    1.8446   -1.5456 C   0  0
    4.2358    2.8096   -0.1315 C   0  0
    5.1280    1.7388   -0.7748 C   0  0
    6.5240    2.3267   -1.0087 C   0  0
    3.4054   -0.1462    3.4247 S   0  0
    2.7674   -1.4013    2.8591 O   0  0
    2.4963    0.4253    4.4959 O   0  0
    4.9641   -0.5896    4.1235 C   0  0
    5.0516   -0.9987    5.5242 C   0  0
    6.0599   -0.5545    3.3680 C   0  0
    7.3531   -0.9250    3.9386 C   0  0
    7.4340   -1.2985    5.2134 C   0  0
    6.2298   -1.3373    6.0445 C   0  0
    8.6655   -1.6532    5.7559 N   0  0
    2.1063    3.1362   -1.5705 H   0  0
    1.2075    0.1542    2.2110 H   0  0
   -0.8411   -0.0393    1.5361 H   0  0
    4.5550    1.3910    2.0794 H   0  0
   -2.3182    2.2498   -2.3881 H   0  0
   -2.2029    2.1601   -0.5993 H   0  0
   -1.7310    0.7462   -1.6035 H   0  0
    4.1650    3.6690   -0.8125 H   0  0
    4.6978    3.0818    0.8274 H   0  0
    5.2033    0.8719   -0.1011 H   0  0
    4.6920    1.4237   -1.7331 H   0  0
    7.1704    1.5655   -1.4681 H   0  0
    6.9524    2.6409   -0.0460 H   0  0
    6.4463    3.1960   -1.6771 H   0  0
    4.1778   -1.0263    6.1245 H   0  0
    5.9928   -0.2576    2.3505 H   0  0
    8.2263   -0.8974    3.3374 H   0  0
    6.2961   -1.6350    7.0600 H   0  0
    9.4831   -1.6272    5.1905 H   0  0
    8.7266   -1.9333    6.7077 H   0  0
  1  2  1  0
  2  3  2  0
  3  4  1  0
  4  5  2  0
  5  6  1  0
  1  6  2  0
  1  7  1  0
  6  8  1  0
  4  9  1  0
  7 10  1  0
  3 11  1  0
 11 12  1  0
  9 14  1  0
 14 17  1  0
 14 15  2  0
 14 16  2  0
 19 20  1  0
 20 21  2  0
 21 22  1  0
 18 22  2  0
 18 17  1  0
 17 19  2  0
 21 23  1  0
 12 13  1  0
  2 24  1  0
  5 25  1  0
  8 26  1  0
  9 27  1  0
 10 28  1  0
 10 29  1  0
 10 30  1  0
 11 31  1  0
 11 32  1  0
 12 33  1  0
 12 34  1  0
 13 35  1  0
 13 36  1  0
 13 37  1  0
 18 38  1  0
 19 39  1  0
 20 40  1  0
 22 41  1  0
 23 42  1  0
 23 43  1  0
M  END
> <Name>
HAB2019_5b'

> <Clean Energy>
18.0359

$$$$
GAB2018_1
  SciTegic12132405553D

 42 44  0  0  0  0            999 V2000
    1.7295   -0.4369   -1.5887 C   0  0
    0.8435   -0.2304   -2.7406 C   0  0
   -0.4752   -0.3383   -2.6185 C   0  0
   -1.0595   -0.6690   -1.3393 C   0  0
   -0.2802   -0.8620   -0.2827 C   0  0
    1.1734   -0.7444   -0.3908 C   0  0
    3.1458   -0.2839   -1.8661 O   0  0
    4.0850   -0.4687   -0.7962 C   0  0
    1.9031   -0.9521    0.7368 O   0  0
   -1.3608   -0.1221   -3.8102 C   0  0
   -2.1266    1.1640   -3.6236 C   0  0
   -1.4868    2.3155   -3.4202 C   0  0
   -0.8938   -1.1932    0.9887 C   0  0
   -0.1401   -1.3963    2.0735 C   0  0
    1.3260   -1.2598    1.9328 C   0  0
    2.0555   -1.4340    2.9146 O   0  0
   -0.6710   -1.7424    3.4711 C   0  0
   -2.0942   -2.0839    3.9045 C   0  0
   -4.4583   -2.6071    3.6381 C   0  0
   -3.1422   -2.2738    3.0906 C   0  0
   -2.3034   -2.2311    5.3545 C   0  0
   -3.5017   -2.5353    5.8457 C   0  0
   -4.6284   -2.7307    4.9501 C   0  0
   -5.8847   -3.0496    5.4669 N   0  3
   -6.0502   -3.1728    6.7748 O   0  5
   -6.7962   -3.2094    4.7421 O   0  0
    0.1657   -1.7482    4.3800 O   0  0
    1.2614    0.0114   -3.6842 H   0  0
   -2.1116   -0.7577   -1.2441 H   0  0
    5.1054   -0.3176   -1.1760 H   0  0
    3.9909   -1.4892   -0.3965 H   0  0
    3.8805    0.2595    0.0026 H   0  0
   -0.7260   -0.0390   -4.7035 H   0  0
   -2.0955   -0.9351   -3.8925 H   0  0
   -3.1854    1.1561   -3.6816 H   0  0
   -0.4267    2.3381   -3.3815 H   0  0
   -2.0394    3.2125   -3.2990 H   0  0
   -1.9235   -1.2568    1.0344 H   0  0
   -5.2792   -2.7521    2.9830 H   0  0
   -3.0408   -2.1994    2.0645 H   0  0
   -1.4883   -2.0913    6.0177 H   0  0
   -3.6336   -2.6359    6.8929 H   0  0
  1  2  1  0
  2  3  2  0
  3  4  1  0
  4  5  2  0
  5  6  1  0
  1  6  2  0
  1  7  1  0
  7  8  1  0
  6  9  1  0
  3 10  1  0
 10 11  1  0
 11 12  2  0
  5 13  1  0
  9 15  1  0
 15 14  1  0
 15 16  2  0
 14 17  1  0
 17 18  1  0
 19 20  1  0
 21 22  2  0
 22 23  1  0
 19 23  2  0
 20 18  2  0
 18 21  1  0
 23 24  1  0
 24 25  1  0
 24 26  2  0
 17 27  2  0
 13 14  2  0
  2 28  1  0
  4 29  1  0
  8 30  1  0
  8 31  1  0
  8 32  1  0
 10 33  1  0
 10 34  1  0
 11 35  1  0
 12 36  1  0
 12 37  1  0
 13 38  1  0
 19 39  1  0
 20 40  1  0
 21 41  1  0
 22 42  1  0
M  CHG  2  24   1  25  -1
M  END
> <Name>
GAB2018_1

> <Clean Energy>
28.8381004333496

$$$$
GAB2018_2
  SciTegic12132405553D

 35 37  0  0  0  0            999 V2000
    2.3294   11.6474    1.4957 C   0  0
    1.2846   12.4726    1.4210 C   0  0
   -0.0645   11.9610    1.2293 C   0  0
   -0.2765   10.6557    1.1215 C   0  0
    0.8327    9.7203    1.1995 C   0  0
    2.0821   10.1498    1.3806 C   0  0
    3.0989    9.2233    1.4652 O   0  0
    0.5335    8.3117    1.0830 C   0  0
    1.5024    7.3997    1.1618 C   0  0
    2.8579    7.8837    1.3832 C   0  0
   -1.4340    3.2698    0.4550 C   0  0
   -0.2242    3.9682    0.9065 C   0  0
   -0.0119    5.2401    0.5733 C   0  0
   -1.0062    5.9171   -0.2992 C   0  0
   -2.0917    5.2737   -0.7129 C   0  0
   -2.3228    3.8985   -0.3132 C   0  0
    1.2516    5.9062    1.0824 C   0  0
    3.6096   12.2720    1.6790 O   0  0
    4.7479   11.4131    1.7498 C   0  0
    3.7968    7.0845    1.4769 O   0  0
   -3.4775    3.2435   -0.7393 N   0  3
   -3.7128    1.9962   -0.3664 O   0  5
   -4.2495    3.8075   -1.4242 O   0  0
    2.1483    5.1612    1.4963 O   0  0
    1.4395   13.5178    1.5004 H   0  0
   -0.8825   12.6333    1.1737 H   0  0
   -1.2622   10.2906    0.9816 H   0  0
   -0.4609    8.0209    0.9582 H   0  0
   -1.6032    2.2654    0.7459 H   0  0
    0.4763    3.4600    1.5199 H   0  0
   -0.8513    6.9107   -0.6110 H   0  0
   -2.7896    5.7676   -1.3402 H   0  0
    5.6535   12.0204    1.8874 H   0  0
    4.8318   10.8377    0.8159 H   0  0
    4.6368   10.7237    2.5989 H   0  0
  1  2  2  0
  2  3  1  0
  3  4  2  0
  4  5  1  0
  5  6  2  0
  1  6  1  0
  9 10  1  0
  7 10  1  0
  5  8  1  0
  7  6  1  0
 11 12  1  0
 12 13  2  0
 13 14  1  0
 14 15  2  0
 15 16  1  0
 11 16  2  0
  9 17  1  0
 17 13  1  0
  1 18  1  0
 18 19  1  0
 16 21  1  0
 21 22  1  0
 21 23  2  0
 10 20  2  0
  8  9  2  0
 17 24  2  0
  2 25  1  0
  3 26  1  0
  4 27  1  0
  8 28  1  0
 11 29  1  0
 12 30  1  0
 14 31  1  0
 15 32  1  0
 19 33  1  0
 19 34  1  0
 19 35  1  0
M  CHG  2  21   1  22  -1
M  END
> <Name>
GAB2018_2

> <Clean Energy>
6.98179

$$$$
GAB2018_3
  SciTegic12132405553D

 44 46  0  0  0  0            999 V2000
    0.7548   -0.4281    6.4106 C   0  0
    0.1179   -0.3908    7.5794 C   0  0
   -1.1385    0.3252    7.7232 C   0  0
   -1.6759    0.9583    6.6887 C   0  0
   -1.0177    0.9452    5.3930 C   0  0
    0.1375    0.2959    5.2239 C   0  0
    0.7250    0.3011    3.9890 O   0  0
   -1.6525    1.6545    4.2888 C   0  0
   -1.0872    1.6708    3.0823 C   0  0
    0.1712    0.9423    2.9302 C   0  0
   -4.3512    4.5678    0.3044 C   0  0
   -3.2210    3.6650    0.5192 C   0  0
   -2.8495    3.3086    1.7510 C   0  0
   -3.6086    3.8726    2.9014 C   0  0
   -4.6335    4.6956    2.6941 C   0  0
   -5.0244    5.0563    1.3410 C   0  0
   -1.6550    2.3652    1.8466 C   0  0
    1.9903   -1.1665    6.3894 O   0  0
    2.6982   -1.2223    5.1476 C   0  0
    0.7453    0.9113    1.8366 O   0  0
   -6.1029    5.9181    1.1359 N   0  3
   -6.4635    6.2516   -0.0941 O   0  5
   -6.6921    6.3487    2.0573 O   0  0
   -1.0729    2.1361    0.7812 O   0  0
   -1.8310    0.3463    9.0436 C   0  0
   -2.8315   -0.8150    9.0643 C   0  0
   -3.5650   -0.8198   10.4111 C   0  0
    0.5327   -0.8901    8.4175 H   0  0
   -2.5935    1.4763    6.8072 H   0  0
   -2.5518    2.1300    4.4620 H   0  0
   -4.6336    4.8319   -0.6826 H   0  0
   -2.6941    3.2847   -0.3178 H   0  0
   -3.3441    3.6430    3.8810 H   0  0
   -5.1646    5.0943    3.5207 H   0  0
    3.6159   -1.8133    5.2769 H   0  0
    2.9617   -0.2031    4.8285 H   0  0
    2.0637   -1.6947    4.3834 H   0  0
   -1.1107    0.1925    9.8590 H   0  0
   -2.3997    1.2791    9.1628 H   0  0
   -3.5587   -0.6883    8.2497 H   0  0
   -2.2940   -1.7647    8.9329 H   0  0
   -4.2851   -1.6502   10.4338 H   0  0
   -4.0980    0.1332   10.5390 H   0  0
   -2.8347   -0.9436   11.2234 H   0  0
  1  2  2  0
  2  3  1  0
  3  4  2  0
  4  5  1  0
  5  6  2  0
  1  6  1  0
  9 10  1  0
  7 10  1  0
  5  8  1  0
  7  6  1  0
 11 12  1  0
 12 13  2  0
 13 14  1  0
 14 15  2  0
 15 16  1  0
 11 16  2  0
  9 17  1  0
 17 13  1  0
  1 18  1  0
 18 19  1  0
 16 21  1  0
 21 22  1  0
 21 23  2  0
 10 20  2  0
  8  9  2  0
 17 24  2  0
  3 25  1  0
 25 26  1  0
 26 27  1  0
  2 28  1  0
  4 29  1  0
  8 30  1  0
 11 31  1  0
 12 32  1  0
 14 33  1  0
 15 34  1  0
 19 35  1  0
 19 36  1  0
 19 37  1  0
 25 38  1  0
 25 39  1  0
 26 40  1  0
 26 41  1  0
 27 42  1  0
 27 43  1  0
 27 44  1  0
M  CHG  2  21   1  22  -1
M  END
> <Name>
GAB2018_3

> <Clean Energy>
14.6794

$$$$
GAB2018_4
  SciTegic12132405553D

 44 46  0  0  0  0            999 V2000
    3.2696   -0.0566   -1.7213 C   0  0
    4.3593   -0.5590   -2.2996 C   0  0
    5.5925   -0.7268   -1.5513 C   0  0
    5.6572   -0.3827   -0.2729 C   0  0
    4.4973    0.1743    0.3979 C   0  0
    3.3462    0.3452   -0.2557 C   0  0
    2.2774    0.8899    0.4127 O   0  0
    4.6356    0.5559    1.7897 C   0  0
    3.6107    1.0956    2.4492 C   0  0
    2.3657    1.2781    1.7128 C   0  0
    5.9358    1.9639    6.9279 C   0  0
    4.8728    2.1279    5.9346 C   0  0
    4.8011    1.3223    4.8757 C   0  0
    5.8001    0.2288    4.7501 C   0  0
    6.7550    0.0809    5.6638 C   0  0
    6.8329    0.9915    6.7929 C   0  0
    3.6820    1.5776    3.8868 C   0  0
    2.1095    0.0606   -2.5617 O   0  0
    0.9238    0.5902   -1.9659 C   0  0
    1.3820    1.7801    2.2681 O   0  0
    7.8473    0.8441    7.7329 N   0  0
    2.7593    2.3029    4.2757 O   0  0
    6.7945   -1.2930   -2.2223 C   0  0
    6.7063   -2.8166   -2.1126 C   0  0
    7.9270   -3.4396   -2.7975 C   0  0
    4.3262   -0.8417   -3.3205 H   0  0
    6.5636   -0.5111    0.2621 H   0  0
    5.5599    0.4282    2.2522 H   0  0
    5.9961    2.6263    7.7530 H   0  0
    4.1666    2.9105    6.0487 H   0  0
    5.7521   -0.4481    3.9459 H   0  0
    7.4596   -0.7059    5.5692 H   0  0
    0.1232    0.6260   -2.7180 H   0  0
    1.1207    1.6057   -1.5925 H   0  0
    0.6133   -0.0555   -1.1314 H   0  0
    8.5150    0.1140    7.6315 H   0  0
    7.9091    1.4728    8.4998 H   0  0
    6.7957   -1.0332   -3.2899 H   0  0
    7.7122   -0.9640   -1.7139 H   0  0
    6.6888   -3.1074   -1.0525 H   0  0
    5.7884   -3.1666   -2.6050 H   0  0
    7.8695   -4.5347   -2.7229 H   0  0
    8.8429   -3.0843   -2.3041 H   0  0
    7.9414   -3.1428   -3.8559 H   0  0
  1  2  2  0
  2  3  1  0
  3  4  2  0
  4  5  1  0
  5  6  2  0
  1  6  1  0
  9 10  1  0
  7 10  1  0
  5  8  1  0
  7  6  1  0
 11 12  1  0
 12 13  2  0
 13 14  1  0
 14 15  2  0
 15 16  1  0
 11 16  2  0
  9 17  1  0
 17 13  1  0
  1 18  1  0
 18 19  1  0
 16 21  1  0
 10 20  2  0
  8  9  2  0
 17 22  2  0
  3 23  1  0
 23 24  1  0
 24 25  1  0
  2 26  1  0
  4 27  1  0
  8 28  1  0
 11 29  1  0
 12 30  1  0
 14 31  1  0
 15 32  1  0
 19 33  1  0
 19 34  1  0
 19 35  1  0
 21 36  1  0
 21 37  1  0
 23 38  1  0
 23 39  1  0
 24 40  1  0
 24 41  1  0
 25 42  1  0
 25 43  1  0
 25 44  1  0
M  END
> <Name>
GAB2018_4

> <Clean Energy>
15.9088

$$$$
GAB2018_5
  SciTegic12132405553D

 55 57  0  0  0  0            999 V2000
   -2.7569    3.8771   11.2999 C   0  0
   -3.5676    4.7439   11.9033 C   0  0
   -4.5082    5.5453   11.1380 C   0  0
   -4.5752    5.4291    9.8184 C   0  0
   -3.7095    4.4962    9.1151 C   0  0
   -2.8354    3.7414    9.7870 C   0  0
   -2.0423    2.8698    9.0926 O   0  0
   -3.8231    4.4066    7.6641 C   0  0
   -3.0514    3.5651    6.9769 C   0  0
   -2.1166    2.7450    7.7445 C   0  0
   -4.4571    4.4616    2.0801 C   0  0
   -3.7964    3.7402    3.1694 C   0  0
   -3.8113    4.2085    4.4176 C   0  0
   -4.5025    5.4945    4.6683 C   0  0
   -5.0973    6.1467    3.6737 C   0  0
   -5.0854    5.6185    2.3163 C   0  0
   -3.0820    3.3730    5.4630 C   0  0
   -1.8686    3.1413   12.1607 O   0  0
   -0.9829    2.2049   11.5404 C   0  0
   -1.3776    1.9389    7.1695 O   0  0
   -5.7564    6.3971    1.3118 N   0  0
   -2.4267    2.4226    5.0226 O   0  0
   -5.4077    6.5041   11.8418 C   0  0
   -6.6431    5.7265   12.3092 C   0  0
   -7.5902    6.6845   13.0423 C   0  0
   -5.8603    6.0694    0.0110 C   0  0
   -5.3780    5.0367   -0.4625 O   0  0
   -6.5957    6.9995   -0.8983 C   0  0
   -8.0968    6.8218   -0.6416 C   0  0
   -8.8280    7.7675   -1.5418 C   0  0
   -9.1392    9.0473   -1.0967 O   0  0
   -9.1497    7.4121   -2.6808 O   0  0
   -3.5271    4.8516   12.9572 H   0  0
   -5.2664    6.0194    9.2723 H   0  0
   -4.5223    4.9998    7.1864 H   0  0
   -4.4261    4.0538    1.1126 H   0  0
   -3.3016    2.8268    2.9602 H   0  0
   -4.5224    5.9134    5.6214 H   0  0
   -5.5836    7.0681    3.8701 H   0  0
   -0.3669    1.7198   12.3108 H   0  0
   -0.3301    2.7322   10.8289 H   0  0
   -1.5687    1.4422   11.0068 H   0  0
   -6.1778    7.2492    1.6041 H   0  0
   -4.9121    6.9076   12.7355 H   0  0
   -5.7378    7.2975   11.1567 H   0  0
   -7.1563    5.2944   11.4384 H   0  0
   -6.3340    4.9211   12.9906 H   0  0
   -8.4792    6.1336   13.3813 H   0  0
   -7.8947    7.4898   12.3587 H   0  0
   -7.0716    7.1163   13.9101 H   0  0
   -6.3503    8.0416   -0.6488 H   0  0
   -6.3798    6.7677   -1.9507 H   0  0
   -8.3584    5.7812   -0.8792 H   0  0
   -8.2901    7.0675    0.4129 H   0  0
   -8.8092    9.1640   -0.1704 H   0  0
  1  2  2  0
  2  3  1  0
  3  4  2  0
  4  5  1  0
  5  6  2  0
  1  6  1  0
  9 10  1  0
  7 10  1  0
  5  8  1  0
  7  6  1  0
 11 12  1  0
 12 13  2  0
 13 14  1  0
 14 15  2  0
 15 16  1  0
 11 16  2  0
  9 17  1  0
 17 13  1  0
  1 18  1  0
 18 19  1  0
 16 21  1  0
 10 20  2  0
  8  9  2  0
 17 22  2  0
  3 23  1  0
 23 24  1  0
 24 25  1  0
 21 26  1  0
 26 28  1  0
 28 29  1  0
 29 30  1  0
 30 31  1  0
 26 27  2  0
 30 32  2  0
  2 33  1  0
  4 34  1  0
  8 35  1  0
 11 36  1  0
 12 37  1  0
 14 38  1  0
 15 39  1  0
 19 40  1  0
 19 41  1  0
 19 42  1  0
 21 43  1  0
 23 44  1  0
 23 45  1  0
 24 46  1  0
 24 47  1  0
 25 48  1  0
 25 49  1  0
 25 50  1  0
 28 51  1  0
 28 52  1  0
 29 53  1  0
 29 54  1  0
 31 55  1  0
M  END
> <Name>
GAB2018_5

> <Clean Energy>
40.4791

$$$$
GAB2018_6
  SciTegic12132405553D

 42 44  0  0  0  0            999 V2000
    1.8522    2.3704   -3.5000 C   0  0
    2.3315    1.8265   -2.3828 C   0  0
    1.5810    1.8901   -1.1396 C   0  0
    0.4034    2.4973   -1.0941 C   0  0
   -0.1602    3.1031   -2.2858 C   0  0
    0.4971    3.0603   -3.4485 C   0  0
   -0.0752    3.6321   -4.5540 O   0  0
   -1.4599    3.7462   -2.1793 C   0  0
   -2.0268    4.3063   -3.2456 C   0  0
   -1.2932    4.2309   -4.5062 C   0  0
   -3.3901    4.9842   -3.2521 C   0  0
    2.6832    2.2465   -4.6684 O   0  0
    2.1948    2.8245   -5.8820 C   0  0
   -1.7694    4.7227   -5.5345 O   0  0
   -3.8688    5.2430   -4.3611 O   0  0
    2.1331    1.2623    0.0941 C   0  0
    1.5581   -0.1570    0.1838 C   0  0
    2.0957   -0.8400    1.4465 C   0  0
   -4.2406    5.3779   -2.0533 C   0  0
   -6.3919    6.1630   -1.2262 C   0  0
   -5.4932    5.7610   -2.3094 C   0  0
   -3.7758    5.3959   -0.6391 C   0  0
   -4.5994    5.7686    0.3370 C   0  0
   -5.9660    6.1638    0.0326 C   0  0
    3.2731    1.3399   -2.3996 H   0  0
   -0.1345    2.5352   -0.1809 H   0  0
   -1.9413    3.7412   -1.2596 H   0  0
    2.9258    2.6572   -6.6857 H   0  0
    2.0476    3.9056   -5.7411 H   0  0
    1.2382    2.3551   -6.1542 H   0  0
    3.2277    1.1883    0.0349 H   0  0
    1.8014    1.8129    0.9855 H   0  0
    0.4609   -0.1063    0.2331 H   0  0
    1.8595   -0.7310   -0.7038 H   0  0
    1.6859   -1.8580    1.5151 H   0  0
    1.7929   -0.2611    2.3307 H   0  0
    3.1926   -0.8873    1.3966 H   0  0
   -7.3875    6.4537   -1.4468 H   0  0
   -5.8461    5.7663   -3.3086 H   0  0
   -2.7935    5.1307   -0.3959 H   0  0
   -4.2562    5.7830    1.3403 H   0  0
   -6.6202    6.4562    0.8144 H   0  0
  1  2  2  0
  2  3  1  0
  3  4  2  0
  4  5  1  0
  5  6  2  0
  1  6  1  0
  9 10  1  0
  7 10  1  0
  5  8  1  0
  7  6  1  0
  9 11  1  0
  1 12  1  0
 12 13  1  0
 10 14  2  0
  8  9  2  0
 11 15  2  0
  3 16  1  0
 16 17  1  0
 17 18  1  0
 11 19  1  0
 20 21  1  0
 22 23  2  0
 23 24  1  0
 20 24  2  0
 21 19  2  0
 19 22  1  0
  2 25  1  0
  4 26  1  0
  8 27  1  0
 13 28  1  0
 13 29  1  0
 13 30  1  0
 16 31  1  0
 16 32  1  0
 17 33  1  0
 17 34  1  0
 18 35  1  0
 18 36  1  0
 18 37  1  0
 20 38  1  0
 21 39  1  0
 22 40  1  0
 23 41  1  0
 24 42  1  0
M  END
> <Name>
GAB2018_6

> <Clean Energy>
15.6417

$$$$
GAB2018_7
  SciTegic12132405553D

 35 36  0  0  0  0            999 V2000
    1.6687    2.3282   -3.5601 C   0  0
    2.0504    1.7512   -2.4236 C   0  0
    1.3798    2.0491   -1.1712 C   0  0
    0.3720    2.9115   -1.1322 C   0  0
   -0.0770    3.5733   -2.3480 C   0  0
    0.5167    3.3201   -3.5193 C   0  0
    0.0693    3.9612   -4.6486 O   0  0
   -1.1939    4.5093   -2.2579 C   0  0
   -1.6288    5.1278   -3.3573 C   0  0
   -0.9596    4.8429   -4.6135 C   0  0
   -2.7672    6.0856   -3.3375 C   0  0
    2.3965    1.9360   -4.7367 O   0  0
    1.9900    2.5125   -5.9791 C   0  0
   -1.3277    5.3969   -5.6552 O   0  0
   -3.1147    6.6341   -4.3894 O   0  0
    1.8143    1.3607    0.0751 C   0  0
    1.1956   -0.0430    0.0438 C   0  0
    1.6137   -0.8161    1.2974 C   0  0
   -3.5272    6.3920   -2.0740 C   0  0
    2.8501    1.0552   -2.4344 H   0  0
   -0.1125    3.1145   -0.2115 H   0  0
   -1.6457    4.6819   -1.3185 H   0  0
    2.6259    2.1231   -6.7866 H   0  0
    2.0891    3.6058   -5.9292 H   0  0
    0.9411    2.2460   -6.1795 H   0  0
    2.9064    1.2368    0.0835 H   0  0
    1.4506    1.8931    0.9652 H   0  0
    0.1003    0.0423    0.0108 H   0  0
    1.5483   -0.5782   -0.8492 H   0  0
    1.1692   -1.8216    1.2706 H   0  0
    1.2616   -0.2815    2.1903 H   0  0
    2.7093   -0.8988    1.3259 H   0  0
   -4.3167    7.1335   -2.2616 H   0  0
   -2.8222    6.7496   -1.3099 H   0  0
   -3.9565    5.4559   -1.6866 H   0  0
  1  2  2  0
  2  3  1  0
  3  4  2  0
  4  5  1  0
  5  6  2  0
  1  6  1  0
  9 10  1  0
  7 10  1  0
  5  8  1  0
  7  6  1  0
  9 11  1  0
  1 12  1  0
 12 13  1  0
 10 14  2  0
  8  9  2  0
 11 15  2  0
  3 16  1  0
 16 17  1  0
 17 18  1  0
 11 19  1  0
  2 20  1  0
  4 21  1  0
  8 22  1  0
 13 23  1  0
 13 24  1  0
 13 25  1  0
 16 26  1  0
 16 27  1  0
 17 28  1  0
 17 29  1  0
 18 30  1  0
 18 31  1  0
 18 32  1  0
 19 33  1  0
 19 34  1  0
 19 35  1  0
M  END
> <Name>
GAB2018_7

> <Clean Energy>
22.6135

$$$$
GAB2018_8
  SciTegic12132405553D

 33 34  0  0  0  0            999 V2000
    1.6676    2.3278   -3.5944 C   0  0
    2.0402    1.7390   -2.4599 C   0  0
    1.3490    2.0151   -1.2109 C   0  0
    0.3293    2.8632   -1.1776 C   0  0
   -0.1135    3.5315   -2.3913 C   0  0
    0.4992    3.3009   -3.5582 C   0  0
    0.0549    3.9497   -4.6861 O   0  0
   -1.2385    4.4571   -2.3067 C   0  0
   -1.6677    5.0847   -3.3977 C   0  0
   -0.9871    4.8183   -4.6528 C   0  0
   -2.8119    6.0411   -3.3695 C   0  0
    2.4263    1.9746   -4.7655 O   0  0
    2.0495    2.5904   -6.0002 C   0  0
   -1.3519    5.3790   -5.6917 O   0  0
   -3.1579    6.5889   -4.4220 O   0  0
    1.7884    1.3379    0.0431 C   0  0
    1.1377   -0.0494    0.0794 C   0  0
    1.5772   -0.7742    1.3576 C   0  0
   -3.5195    6.3491   -2.1888 O   0  0
    2.8525    1.0578   -2.4668 H   0  0
   -0.1664    3.0548   -0.2603 H   0  0
   -1.7074    4.6243   -1.3749 H   0  0
    2.7087    2.2314   -6.8032 H   0  0
    2.1442    3.6826   -5.9104 H   0  0
    1.0077    2.3297   -6.2383 H   0  0
    2.8772    1.1897    0.0343 H   0  0
    1.4547    1.9028    0.9247 H   0  0
    0.0438    0.0578    0.0726 H   0  0
    1.4560   -0.6278   -0.7995 H   0  0
    1.1152   -1.7711    1.3915 H   0  0
    1.2602   -0.1915    2.2343 H   0  0
    2.6720   -0.8756    1.3608 H   0  0
   -3.1678    5.8646   -1.4147 H   0  0
  1  2  2  0
  2  3  1  0
  3  4  2  0
  4  5  1  0
  5  6  2  0
  1  6  1  0
  9 10  1  0
  7 10  1  0
  5  8  1  0
  7  6  1  0
  9 11  1  0
  1 12  1  0
 12 13  1  0
 10 14  2  0
  8  9  2  0
 11 15  2  0
  3 16  1  0
 16 17  1  0
 17 18  1  0
 11 19  1  0
  2 20  1  0
  4 21  1  0
  8 22  1  0
 13 23  1  0
 13 24  1  0
 13 25  1  0
 16 26  1  0
 16 27  1  0
 17 28  1  0
 17 29  1  0
 18 30  1  0
 18 31  1  0
 18 32  1  0
 19 33  1  0
M  END
> <Name>
GAB2018_8

> <Clean Energy>
10.4444

$$$$
GAB2018_9
  SciTegic12132405553D

 46 48  0  0  0  0            999 V2000
    7.7934    4.4578   -2.9281 C   0  0
    8.3300    4.7667   -1.7321 C   0  0
    7.8419    4.1066   -0.5207 C   0  0
    6.8721    3.2020   -0.5874 C   0  0
    6.2894    2.8674   -1.8692 C   0  0
    6.7243    3.4620   -2.9828 C   0  0
    6.1499    3.1485   -4.1958 O   0  0
    5.2123    1.8307   -1.9620 C   0  0
    4.1759    2.2825   -2.9853 C   0  0  2  0  0  0
    4.9424    2.4918   -4.2470 C   0  0
    3.4850    3.5381   -2.3453 C   0  0
    8.1928    5.0453   -4.1779 O   0  0
    9.2412    6.0292   -4.1214 C   0  0
    4.4753    2.1244   -5.3300 O   0  0
    2.8837    3.3228   -1.2875 O   0  0
    8.4420    4.4510    0.7990 C   0  0
    9.6865    3.5777    0.9881 C   0  0
   10.3310    3.9127    2.3389 C   0  0
    3.4605    4.9895   -2.8377 C   0  0
    2.7325    7.2734   -2.4058 C   0  0
    2.8220    5.8583   -2.0513 C   0  0
    4.0782    5.5090   -4.0962 C   0  0
    3.9905    6.7997   -4.4059 C   0  0
    3.2899    7.7209   -3.5258 C   0  0
    3.2030    9.0732   -3.8585 N   0  3
    3.7600    9.5171   -4.9747 O   0  5
    2.6367    9.8191   -3.1481 O   0  0
    9.1032    5.4797   -1.6337 H   0  0
    6.5262    2.7266    0.2944 H   0  0
    5.6675    0.9130   -2.3579 H   0  0
    4.7690    1.6243   -0.9782 H   0  0
    3.4188    1.4938   -3.0913 H   0  0
    9.4501    6.3966   -5.1362 H   0  0
   10.1520    5.5751   -3.7033 H   0  0
    8.9240    6.8705   -3.4873 H   0  0
    8.7683    5.5003    0.8080 H   0  0
    7.7379    4.2287    1.6128 H   0  0
    9.3974    2.5174    0.9693 H   0  0
   10.4024    3.7782    0.1783 H   0  0
   11.2255    3.2903    2.4832 H   0  0
    9.6106    3.7145    3.1454 H   0  0
   10.6151    4.9747    2.3536 H   0  0
    2.2213    7.9455   -1.7646 H   0  0
    2.3741    5.5200   -1.1528 H   0  0
    4.5851    4.8750   -4.7481 H   0  0
    4.4334    7.1574   -5.3003 H   0  0
  1  2  2  0
  2  3  1  0
  3  4  2  0
  4  5  1  0
  5  6  2  0
  1  6  1  0
  9 10  1  0
  7 10  1  0
  5  8  1  0
  7  6  1  0
  9 11  1  0
  1 12  1  0
 12 13  1  0
 10 14  2  0
 11 15  2  0
  3 16  1  0
 16 17  1  0
 17 18  1  0
 11 19  1  0
  8  9  1  0
 20 21  1  0
 22 23  2  0
 23 24  1  0
 20 24  2  0
 21 19  2  0
 19 22  1  0
 24 25  1  0
 25 26  1  0
 25 27  2  0
  2 28  1  0
  4 29  1  0
  8 30  1  0
  8 31  1  0
  9 32  1  0
 13 33  1  0
 13 34  1  0
 13 35  1  0
 16 36  1  0
 16 37  1  0
 17 38  1  0
 17 39  1  0
 18 40  1  0
 18 41  1  0
 18 42  1  0
 20 43  1  0
 21 44  1  0
 22 45  1  0
 23 46  1  0
M  CHG  2  25   1  26  -1
M  END
> <Name>
GAB2018_9

> <Clean Energy>
51.7304

$$$$
GAB2018_11(R)
  SciTegic12132405553D

 46 48  0  0  0  0            999 V2000
   -1.8719   -1.9074    1.6360 C   0  0
   -2.2842   -3.0505    2.1799 C   0  0
   -3.6788   -3.2478    2.5416 C   0  0
   -4.5713   -2.2878    2.3355 C   0  0
   -4.1678   -1.0210    1.7454 C   0  0
   -2.8926   -0.8053    1.4006 C   0  0
   -2.5451    0.4046    0.8460 O   0  0
   -5.1814    0.0071    1.5389 C   0  0
   -4.8416    1.1744    1.0033 C   0  0
   -3.4562    1.3870    0.6395 C   0  0
   -5.8572    2.2795    0.7671 C   0  0  2  0  0  0
   -0.4697   -1.8309    1.3193 O   0  0
   -3.1035    2.4618    0.1419 O   0  0
   -6.9808    2.1506    1.6721 O   0  0
   -4.1098   -4.5408    3.1480 C   0  0
   -4.3009   -5.5527    2.0127 C   0  0
   -4.7365   -6.8967    2.6097 C   0  0
   -6.3210    2.1582   -0.6670 C   0  0
   -6.2058    2.8431   -2.9876 C   0  0
   -5.7769    2.9434   -1.5941 C   0  0
   -7.3546    1.1895   -1.0514 C   0  0
   -7.7449    1.0988   -2.3202 C   0  0
   -7.1441    1.9641   -3.3344 C   0  0
   -7.5559    1.8654   -4.6641 N   0  3
   -7.0146    2.6452   -5.5878 O   0  5
   -8.3847    1.0880   -4.9646 O   0  0
    0.0036   -0.6156    0.7320 C   0  0
   -1.5858   -3.8296    2.3511 H   0  0
   -5.5850   -2.4449    2.6032 H   0  0
   -6.1843   -0.1817    1.8156 H   0  0
   -5.3383    3.2434    0.8626 H   0  0
   -7.4454    1.2913    1.5570 H   0  0
   -3.3212   -4.9331    3.8049 H   0  0
   -5.0658   -4.4205    3.6765 H   0  0
   -5.0730   -5.1872    1.3211 H   0  0
   -3.3530   -5.6811    1.4711 H   0  0
   -4.8753   -7.6293    1.8019 H   0  0
   -5.6827   -6.7644    3.1535 H   0  0
   -3.9621   -7.2554    3.3028 H   0  0
   -5.7685    3.4710   -3.7212 H   0  0
   -5.0284    3.6427   -1.3195 H   0  0
   -7.7899    0.5605   -0.3182 H   0  0
   -8.4915    0.3982   -2.5959 H   0  0
    1.0836   -0.6972    0.5444 H   0  0
   -0.1859    0.2228    1.4183 H   0  0
   -0.5202   -0.4384   -0.2190 H   0  0
  1  2  2  0
  2  3  1  0
  3  4  2  0
  4  5  1  0
  5  6  2  0
  1  6  1  0
  9 10  1  0
  7 10  1  0
  5  8  1  0
  7  6  1  0
 11  9  1  0
  1 12  1  0
 10 13  2  0
  3 15  1  0
 15 16  1  0
 16 17  1  0
 11 18  1  0
 19 20  1  0
 21 22  2  0
 22 23  1  0
 19 23  2  0
 20 18  2  0
 18 21  1  0
 23 24  1  0
 24 25  1  0
 24 26  2  0
  8  9  2  0
 12 27  1  0
 11 14  1  0
  2 28  1  0
  4 29  1  0
  8 30  1  0
 11 31  1  0
 14 32  1  0
 15 33  1  0
 15 34  1  0
 16 35  1  0
 16 36  1  0
 17 37  1  0
 17 38  1  0
 17 39  1  0
 19 40  1  0
 20 41  1  0
 21 42  1  0
 22 43  1  0
 27 44  1  0
 27 45  1  0
 27 46  1  0
M  CHG  2  24   1  25  -1
M  END
> <Name>
GAB2018_11(R)

> <Clean Energy>
30.4621

$$$$
GAB2018_11(S)
  SciTegic12132405553D

 46 48  0  0  0  0            999 V2000
    1.5478    4.5476    4.4819 C   0  0
    2.2166    5.1959    5.4335 C   0  0
    1.7229    6.4530    5.9719 C   0  0
    0.5914    6.9810    5.5235 C   0  0
   -0.1735    6.3102    4.4851 C   0  0
    0.2506    5.1511    3.9659 C   0  0
   -0.4994    4.5422    2.9823 O   0  0
   -1.4102    6.9260    4.0220 C   0  0
   -2.1260    6.3352    3.0750 C   0  0
   -1.6559    5.0847    2.5247 C   0  0
   -3.4032    6.9514    2.5813 C   0  0  1  0  0  0
    2.1348    3.3138    4.0291 O   0  0
   -2.3019    4.5135    1.6396 O   0  0
   -4.0397    7.6295    3.6651 O   0  0
    2.4939    7.1537    7.0387 C   0  0
    2.0499    6.5805    8.3889 C   0  0
    2.8291    7.2801    9.5094 C   0  0
   -3.0333    7.9642    1.5407 C   0  0
   -2.5564    8.5766   -0.7513 C   0  0
   -2.9166    7.5929    0.2682 C   0  0
   -2.8028    9.3589    1.9204 C   0  0
   -2.4749   10.2549    0.9929 C   0  0
   -2.3457    9.8460   -0.4064 C   0  0
   -2.0016   10.7887   -1.3762 N   0  3
   -1.8828   10.4256   -2.6444 O   0  5
   -1.8168   11.9073   -1.0662 O   0  0
    1.4393    2.5942    3.0073 C   0  0
    3.1225    4.7896    5.8051 H   0  0
    0.2423    7.8979    5.9254 H   0  0
   -1.7350    7.8445    4.4406 H   0  0
   -4.0134    6.1666    2.1137 H   0  0
   -4.2666    6.9779    4.3738 H   0  0
    3.5685    6.9527    6.9287 H   0  0
    2.2703    8.2296    7.0324 H   0  0
    0.9728    6.7529    8.5248 H   0  0
    2.2558    5.5011    8.4152 H   0  0
    2.5167    6.8745   10.4822 H   0  0
    2.6232    8.3596    9.4774 H   0  0
    3.9055    7.1076    9.3672 H   0  0
   -2.4634    8.2781   -1.7641 H   0  0
   -3.0842    6.5819   -0.0049 H   0  0
   -2.8951    9.6547    2.9344 H   0  0
   -2.3070   11.2650    1.2679 H   0  0
    1.9969    1.6795    2.7611 H   0  0
    1.3527    3.2226    2.1087 H   0  0
    0.4350    2.3246    3.3661 H   0  0
  1  2  2  0
  2  3  1  0
  3  4  2  0
  4  5  1  0
  5  6  2  0
  1  6  1  0
  9 10  1  0
  7 10  1  0
  5  8  1  0
  7  6  1  0
  9 11  1  0
  1 12  1  0
 10 13  2  0
  3 15  1  0
 15 16  1  0
 16 17  1  0
 11 18  1  0
 19 20  1  0
 21 22  2  0
 22 23  1  0
 19 23  2  0
 20 18  2  0
 18 21  1  0
 23 24  1  0
 24 25  1  0
 24 26  2  0
  8  9  2  0
 12 27  1  0
 11 14  1  0
  2 28  1  0
  4 29  1  0
  8 30  1  0
 11 31  1  0
 14 32  1  0
 15 33  1  0
 15 34  1  0
 16 35  1  0
 16 36  1  0
 17 37  1  0
 17 38  1  0
 17 39  1  0
 19 40  1  0
 20 41  1  0
 21 42  1  0
 22 43  1  0
 27 44  1  0
 27 45  1  0
 27 46  1  0
M  CHG  2  24   1  25  -1
M  END
> <Name>
GAB2018_11(S)

> <Clean Energy>
29.0474

$$$$
GAB2018_10
  SciTegic12132405553D

 41 43  0  0  0  0            999 V2000
    2.6009    0.8559   -1.2860 C   0  0
    3.4243    0.1018   -2.0103 C   0  0
    4.5950   -0.5031   -1.3857 C   0  0
    4.8419   -0.3009   -0.0951 C   0  0
    3.9413    0.5245    0.7003 C   0  0
    2.8694    1.0776    0.1349 C   0  0
    2.0201    1.8436    0.8671 O   0  0
    4.2259    0.7307    2.1119 C   0  0
    3.4130    1.4817    2.8571 C   0  0
    2.2378    2.0629    2.1909 C   0  0
    3.5910    1.7641    4.3462 C   0  0
    1.4854    1.4325   -1.8791 O   0  0
    1.4432    2.7624    2.8281 O   0  0
    2.6492    2.3344    4.9067 O   0  0
    5.5151   -1.3531   -2.1943 C   0  0
    5.0774   -2.8118   -2.0170 C   0  0
    6.0079   -3.7171   -2.8331 C   0  0
    4.7825    1.4324    5.2377 C   0  0
    5.6958    1.3665    7.4946 C   0  0
    4.6190    1.6465    6.5452 C   0  0
    6.1004    0.9196    4.7717 C   0  0
    7.0740    0.6717    5.6440 C   0  0
    6.8636    0.9002    7.0643 C   0  0
    7.8912    0.6331    7.9702 N   0  3
    7.7067    0.8394    9.2653 O   0  5
    8.9225    0.2239    7.5821 O   0  0
    3.2301   -0.0603   -3.0399 H   0  0
    5.6933   -0.7426    0.3572 H   0  0
    5.0573    0.2738    2.5209 H   0  0
    1.4556    1.1826   -2.8358 H   0  0
    5.4403   -1.0974   -3.2604 H   0  0
    6.5441   -1.2674   -1.8183 H   0  0
    5.1363   -3.0867   -0.9542 H   0  0
    4.0433   -2.9299   -2.3703 H   0  0
    5.7002   -4.7654   -2.7103 H   0  0
    7.0409   -3.5928   -2.4777 H   0  0
    5.9491   -3.4381   -3.8947 H   0  0
    5.5420    1.5360    8.5297 H   0  0
    3.6939    2.0186    6.9038 H   0  0
    6.2845    0.7594    3.7594 H   0  0
    8.0099    0.3105    5.3006 H   0  0
  1  2  2  0
  2  3  1  0
  3  4  2  0
  4  5  1  0
  5  6  2  0
  1  6  1  0
  9 10  1  0
  7 10  1  0
  5  8  1  0
  7  6  1  0
  9 11  1  0
  1 12  1  0
 10 13  2  0
 11 14  2  0
  3 15  1  0
 15 16  1  0
 16 17  1  0
 11 18  1  0
 19 20  1  0
 21 22  2  0
 22 23  1  0
 19 23  2  0
 20 18  2  0
 18 21  1  0
 23 24  1  0
 24 25  1  0
 24 26  2  0
  8  9  2  0
  2 27  1  0
  4 28  1  0
  8 29  1  0
 12 30  1  0
 15 31  1  0
 15 32  1  0
 16 33  1  0
 16 34  1  0
 17 35  1  0
 17 36  1  0
 17 37  1  0
 19 38  1  0
 20 39  1  0
 21 40  1  0
 22 41  1  0
M  CHG  2  24   1  25  -1
M  END
> <Name>
GAB2018_10

> <Clean Energy>
11.0051

$$$$
HAB2021_1
  SciTegic12132405553D

 24 24  0  0  0  0            999 V2000
    2.5089   -2.1071    1.3937 C   0  0
    3.6589   -2.5600    2.1411 C   0  0
    3.4968   -3.1189    3.3342 C   0  0
    2.1571   -3.2853    3.9110 C   0  0
    1.0722   -2.8627    3.2140 C   0  0
    1.2859   -2.2487    1.8952 C   0  0
   -0.3165   -2.9486    3.6331 O   0  0
   -0.6269   -3.5308    4.9078 C   0  0
    2.0942   -3.8828    5.1703 O   0  0
    2.7020   -1.4769    0.0528 C   0  0
    2.4314   -0.0075    0.1595 C   0  0
    2.8734    0.8157   -0.7866 C   0  0
    4.6319   -2.4452    1.7358 H   0  0
    4.3454   -3.4488    3.8774 H   0  0
    0.4508   -1.9116    1.3353 H   0  0
   -1.7152   -3.5143    5.0611 H   0  0
   -0.1369   -2.9529    5.7052 H   0  0
   -0.2701   -4.5709    4.9340 H   0  0
    3.0084   -4.1036    5.4755 H   0  0
    3.7114   -1.6390   -0.3507 H   0  0
    1.9462   -1.8702   -0.6413 H   0  0
    1.9021    0.3781    0.9943 H   0  0
    3.4127    0.4293   -1.6145 H   0  0
    2.6884    1.8577   -0.7123 H   0  0
  1  2  1  0
  2  3  2  0
  3  4  1  0
  4  5  2  0
  5  6  1  0
  1  6  2  0
  5  7  1  0
  7  8  1  0
  4  9  1  0
  1 10  1  0
 10 11  1  0
 11 12  2  0
  2 13  1  0
  3 14  1  0
  6 15  1  0
  8 16  1  0
  8 17  1  0
  8 18  1  0
  9 19  1  0
 10 20  1  0
 10 21  1  0
 11 22  1  0
 12 23  1  0
 12 24  1  0
M  END
> <Name>
HAB2021_1

> <Clean Energy>
24.4929008483887

$$$$
HAB2021_2
  SciTegic12132405553D

 26 26  0  0  0  0            999 V2000
    0.9650    1.4660   -1.7747 C   0  0
   -0.2751    1.9315   -2.3514 C   0  0
   -0.2862    2.4376   -3.5789 C   0  0
    0.9509    2.5317   -4.3649 C   0  0
    2.1184    2.0957   -3.8280 C   0  0
    2.0963    1.5416   -2.4671 C   0  0
    3.4259    2.1132   -4.4615 O   0  0
    3.5507    2.6348   -5.7926 C   0  0
    0.8337    3.0781   -5.6435 O   0  0
    0.9736    0.8962   -0.3960 C   0  0
    0.8123   -0.6234   -0.5163 C   0  0
    0.8198   -1.2398    0.8880 C   0  0
   -1.1749    1.8685   -1.7941 H   0  0
   -1.1994    2.7777   -3.9968 H   0  0
    2.9982    1.1951   -2.0302 H   0  0
    4.6006    2.5710   -6.1122 H   0  0
    3.2275    3.6859   -5.8077 H   0  0
    2.9237    2.0464   -6.4785 H   0  0
   -0.1096    3.3216   -5.8119 H   0  0
    1.9382    1.0915    0.0928 H   0  0
    0.1271    1.2856    0.1867 H   0  0
   -0.1396   -0.8531   -1.0156 H   0  0
    1.6446   -1.0361   -1.1040 H   0  0
    0.7051   -2.3304    0.8107 H   0  0
   -0.0120   -0.8227    1.4734 H   0  0
    1.7721   -1.0041    1.3842 H   0  0
  1  2  1  0
  2  3  2  0
  3  4  1  0
  4  5  2  0
  5  6  1  0
  1  6  2  0
  5  7  1  0
  7  8  1  0
  4  9  1  0
  1 10  1  0
 10 11  1  0
 11 12  1  0
  2 13  1  0
  3 14  1  0
  6 15  1  0
  8 16  1  0
  8 17  1  0
  8 18  1  0
  9 19  1  0
 10 20  1  0
 10 21  1  0
 11 22  1  0
 11 23  1  0
 12 24  1  0
 12 25  1  0
 12 26  1  0
M  END
> <Name>
HAB2021_2

> <Clean Energy>
13.8789

$$$$
HAB2021_3a
  SciTegic12132405553D

 26 26  0  0  0  0            999 V2000
    2.5731   -1.6426   -1.4364 C   0  0
    3.0765   -0.6044   -2.4119 C   0  0
    3.1949   -0.9360   -3.6951 C   0  0
    2.8703   -2.2773   -4.1622 C   0  0
    2.4454   -3.2132   -3.3195 C   0  0
    2.2833   -2.8689   -1.8748 C   0  0
    2.1744   -4.5057   -3.8672 O   0  0
    1.7467   -5.4998   -2.9252 C   0  0
    3.0210   -2.5866   -5.5068 O   0  0
    2.3747   -1.3653    0.0372 C   0  0
    1.2730   -0.3455    0.2083 C   0  0
    0.0266   -0.6132   -0.1739 C   0  0
    3.4543    0.7336   -2.0526 N   0  3
    3.4995    1.1644   -0.8039 O   0  5
    3.7898    1.4698   -2.9055 O   0  0
    3.5464   -0.2184   -4.3914 H   0  0
    1.9340   -3.5832   -1.1767 H   0  0
    1.5730   -6.4488   -3.4533 H   0  0
    0.8152   -5.1759   -2.4405 H   0  0
    2.5285   -5.6455   -2.1641 H   0  0
    3.3469   -1.7884   -5.9921 H   0  0
    2.0837   -2.3051    0.5281 H   0  0
    3.2918   -0.9373    0.4624 H   0  0
    1.4941    0.5915    0.6545 H   0  0
   -0.2079   -1.5510   -0.6077 H   0  0
   -0.7338    0.1161   -0.0414 H   0  0
  1  2  1  0
  2  3  2  0
  3  4  1  0
  4  5  2  0
  5  6  1  0
  1  6  2  0
  5  7  1  0
  7  8  1  0
  4  9  1  0
  1 10  1  0
 10 11  1  0
  2 13  1  0
 13 14  1  0
 13 15  2  0
 11 12  2  0
  3 16  1  0
  6 17  1  0
  8 18  1  0
  8 19  1  0
  8 20  1  0
  9 21  1  0
 10 22  1  0
 10 23  1  0
 11 24  1  0
 12 25  1  0
 12 26  1  0
M  CHG  2  13   1  14  -1
M  END
> <Name>
HAB2021_3a

> <Clean Energy>
24.356

$$$$
HAB2021_3b
  SciTegic12132405553D

 28 28  0  0  0  0            999 V2000
    1.2932    2.0973    1.3621 C   0  0
    0.2457    3.1624    1.1501 C   0  0
   -0.1358    3.8997    2.1920 C   0  0
    0.4327    3.6842    3.5178 C   0  0
    1.3473    2.7429    3.7273 C   0  0
    1.8015    1.9068    2.5779 C   0  0
    1.8408    2.5968    5.0607 O   0  0
    2.8164    1.5602    5.2467 C   0  0
    0.0079    4.4720    4.5792 O   0  0
    1.8216    1.2229    0.2573 C   0  0
    0.9977   -0.0691    0.2262 C   0  0
    1.5369   -0.9689   -0.8937 C   0  0
   -0.3841    3.4442   -0.1084 N   0  3
   -0.1354    2.7616   -1.2123 O   0  5
   -1.1774    4.3102   -0.1579 O   0  0
   -0.8696    4.6532    2.0604 H   0  0
    2.5359    1.1552    2.7020 H   0  0
    3.1252    1.5368    6.3015 H   0  0
    3.6938    1.7589    4.6142 H   0  0
    2.3774    0.5884    4.9744 H   0  0
   -0.6686    5.1182    4.2579 H   0  0
    1.7230    1.7168   -0.7120 H   0  0
    2.8629    0.9421    0.4657 H   0  0
    1.0887   -0.5873    1.1918 H   0  0
   -0.0575    0.1710    0.0344 H   0  0
    0.9580   -1.9025   -0.9271 H   0  0
    2.5948   -1.1984   -0.6991 H   0  0
    1.4468   -0.4450   -1.8563 H   0  0
  1  2  1  0
  2  3  2  0
  3  4  1  0
  4  5  2  0
  5  6  1  0
  1  6  2  0
  5  7  1  0
  7  8  1  0
  4  9  1  0
  1 10  1  0
 10 11  1  0
 11 12  1  0
  2 13  1  0
 13 14  1  0
 13 15  2  0
  3 16  1  0
  6 17  1  0
  8 18  1  0
  8 19  1  0
  8 20  1  0
  9 21  1  0
 10 22  1  0
 10 23  1  0
 11 24  1  0
 11 25  1  0
 12 26  1  0
 12 27  1  0
 12 28  1  0
M  CHG  2  13   1  14  -1
M  END
> <Name>
HAB2021_3b

> <Clean Energy>
11.8075

$$$$
HAB2021_3c
  SciTegic12132405553D

 26 26  0  0  0  0            999 V2000
    2.2099   -1.5799    1.6868 C   0  0
    3.5927   -1.9073    1.9859 C   0  0
    3.9443   -2.3430    3.1946 C   0  0
    2.8890   -2.4937    4.2547 C   0  0
    1.6208   -2.1925    3.9779 C   0  0
    1.2650   -1.7075    2.6113 C   0  0
    0.6690   -2.3579    5.0316 O   0  0
   -0.6865   -2.0226    4.6970 C   0  0
    3.1721   -2.9449    5.5526 O   0  0
    5.3157   -2.6438    3.4143 N   0  3
    6.1809   -2.4826    2.4242 O   0  5
    5.7075   -3.0321    4.4484 O   0  0
    1.8477   -1.0929    0.3239 C   0  0
    1.6383    0.3874    0.3800 C   0  0
    1.3922    1.0630   -0.7387 C   0  0
    4.3270   -1.7966    1.2304 H   0  0
    0.2692   -1.4585    2.3543 H   0  0
   -1.3284   -2.1858    5.5743 H   0  0
   -1.0316   -2.6604    3.8696 H   0  0
   -0.7424   -0.9657    4.3963 H   0  0
    4.1110   -3.1392    5.6657 H   0  0
    2.6294   -1.3137   -0.4164 H   0  0
    0.8909   -1.5278    0.0032 H   0  0
    1.6901    0.8972    1.3092 H   0  0
    1.3439    0.5506   -1.6664 H   0  0
    1.2444    2.1129   -0.7031 H   0  0
  1  2  1  0
  2  3  2  0
  3  4  1  0
  4  5  2  0
  5  6  1  0
  1  6  2  0
  5  7  1  0
  7  8  1  0
  4  9  1  0
  3 10  1  0
 10 11  1  0
  1 13  1  0
 13 14  1  0
 10 12  2  0
 14 15  2  0
  2 16  1  0
  6 17  1  0
  8 18  1  0
  8 19  1  0
  8 20  1  0
  9 21  1  0
 13 22  1  0
 13 23  1  0
 14 24  1  0
 15 25  1  0
 15 26  1  0
M  CHG  2  10   1  11  -1
M  END
> <Name>
HAB2021_3c

> <Clean Energy>
21.1331

$$$$
HAB2021_3d
  SciTegic12132405553D

 28 28  0  0  0  0            999 V2000
    1.3159    2.0835    1.4089 C   0  0
    0.2600    3.0616    1.2155 C   0  0
   -0.2050    3.7744    2.2403 C   0  0
    0.3772    3.5555    3.6091 C   0  0
    1.3458    2.6572    3.7837 C   0  0
    1.8414    1.8778    2.6108 C   0  0
    1.8533    2.4986    5.1106 O   0  0
    2.8943    1.5210    5.2603 C   0  0
   -0.0539    4.2620    4.7420 O   0  0
   -1.2386    4.7130    1.9758 N   0  3
   -1.6949    4.8428    0.7390 O   0  5
   -1.7023    5.3795    2.8212 O   0  0
    1.8146    1.2994    0.2430 C   0  0
    1.0199   -0.0099    0.1856 C   0  0
    1.5124   -0.8418   -1.0049 C   0  0
   -0.1422    3.2061    0.2461 H   0  0
    2.6086    1.1559    2.7102 H   0  0
    3.2076    1.4819    6.3132 H   0  0
    3.7552    1.7989    4.6342 H   0  0
    2.5197    0.5325    4.9549 H   0  0
   -0.7551    4.8892    4.5256 H   0  0
    1.6392    1.8478   -0.6931 H   0  0
    2.8739    1.0412    0.3802 H   0  0
    1.1723   -0.5736    1.1171 H   0  0
   -0.0491    0.2147    0.0625 H   0  0
    0.9475   -1.7837   -1.0532 H   0  0
    2.5824   -1.0605   -0.8788 H   0  0
    1.3611   -0.2738   -1.9339 H   0  0
  1  2  1  0
  2  3  2  0
  3  4  1  0
  4  5  2  0
  5  6  1  0
  1  6  2  0
  5  7  1  0
  7  8  1  0
  4  9  1  0
  3 10  1  0
 10 11  1  0
  1 13  1  0
 13 14  1  0
 14 15  1  0
 10 12  2  0
  2 16  1  0
  6 17  1  0
  8 18  1  0
  8 19  1  0
  8 20  1  0
  9 21  1  0
 13 22  1  0
 13 23  1  0
 14 24  1  0
 14 25  1  0
 15 26  1  0
 15 27  1  0
 15 28  1  0
M  CHG  2  10   1  11  -1
M  END
> <Name>
HAB2021_3d

> <Clean Energy>
10.6113

$$$$
HAB2021_4a
  SciTegic12132405553D

 26 26  0  0  0  0            999 V2000
    2.0986   -1.6551    1.2396 C   0  0
    1.1172   -2.0487    2.2607 C   0  0
    1.4952   -2.1297    3.5309 C   0  0
    2.8742   -1.8351    3.9339 C   0  0
    3.7848   -1.4740    2.9963 C   0  0
    3.3518   -1.3892    1.5965 C   0  0
    5.1834   -1.1505    3.2236 O   0  0
    5.7063   -1.2032    4.5592 C   0  0
    3.1586   -1.9520    5.2949 O   0  0
    1.7172   -1.5492   -0.2128 C   0  0
    0.9364   -0.2762   -0.3986 C   0  0
    1.5357    0.9066   -0.2767 C   0  0
   -0.2219   -2.3468    1.9373 N   0  0
    0.7867   -2.4136    4.2668 H   0  0
    4.0527   -1.1070    0.8529 H   0  0
    6.7712   -0.9308    4.5448 H   0  0
    5.5952   -2.2222    4.9578 H   0  0
    5.1569   -0.4958    5.1975 H   0  0
    2.3417   -2.2267    5.7793 H   0  0
    2.6381   -1.4961   -0.8101 H   0  0
    1.0639   -2.3880   -0.4907 H   0  0
   -0.0938   -0.3223   -0.6459 H   0  0
    2.5696    0.9565   -0.0425 H   0  0
    0.9796    1.7990   -0.4146 H   0  0
   -0.5459   -2.3036    1.0026 H   0  0
   -0.8511   -2.6072    2.6609 H   0  0
  1  2  1  0
  2  3  2  0
  3  4  1  0
  4  5  2  0
  5  6  1  0
  1  6  2  0
  5  7  1  0
  7  8  1  0
  4  9  1  0
  1 10  1  0
 10 11  1  0
  2 13  1  0
 11 12  2  0
  3 14  1  0
  6 15  1  0
  8 16  1  0
  8 17  1  0
  8 18  1  0
  9 19  1  0
 10 20  1  0
 10 21  1  0
 11 22  1  0
 12 23  1  0
 12 24  1  0
 13 25  1  0
 13 26  1  0
M  END
> <Name>
HAB2021_4a

> <Clean Energy>
26.0156

$$$$
HAB2021_4b
  SciTegic12132405553D

 28 28  0  0  0  0            999 V2000
    1.5459    2.1263    1.0201 C   0  0
    0.3100    2.9113    1.1441 C   0  0
    0.1439    3.7022    2.1975 C   0  0
    1.1716    3.8064    3.2391 C   0  0
    2.3139    3.0839    3.1295 C   0  0
    2.4820    2.2140    1.9588 C   0  0
    3.4257    3.0702    4.0654 O   0  0
    3.3593    3.8872    5.2437 C   0  0
    0.8909    4.6678    4.3002 O   0  0
    1.7821    1.2175   -0.1471 C   0  0
    1.1238   -0.1302    0.1686 C   0  0
    1.3447   -1.0828   -1.0123 C   0  0
   -0.7145    2.8539    0.1776 N   0  0
   -0.7480    4.2684    2.2870 H   0  0
    3.3697    1.6426    1.8600 H   0  0
    4.2781    3.7536    5.8323 H   0  0
    2.4910    3.5894    5.8494 H   0  0
    3.2617    4.9436    4.9538 H   0  0
    0.0035    5.0815    4.1623 H   0  0
    1.3004    1.6190   -1.0488 H   0  0
    2.8582    1.0497   -0.2933 H   0  0
    1.5745   -0.5558    1.0763 H   0  0
    0.0458    0.0170    0.3270 H   0  0
    0.8751   -2.0526   -0.7944 H   0  0
    2.4235   -1.2234   -1.1702 H   0  0
    0.8946   -0.6510   -1.9177 H   0  0
   -0.6331    2.2770   -0.6230 H   0  0
   -1.5335    3.4024    0.3032 H   0  0
  1  2  1  0
  2  3  2  0
  3  4  1  0
  4  5  2  0
  5  6  1  0
  1  6  2  0
  5  7  1  0
  7  8  1  0
  4  9  1  0
  1 10  1  0
 10 11  1  0
  2 13  1  0
 11 12  1  0
  3 14  1  0
  6 15  1  0
  8 16  1  0
  8 17  1  0
  8 18  1  0
  9 19  1  0
 10 20  1  0
 10 21  1  0
 11 22  1  0
 11 23  1  0
 12 24  1  0
 12 25  1  0
 12 26  1  0
 13 27  1  0
 13 28  1  0
M  END
> <Name>
HAB2021_4b

> <Clean Energy>
13.7718

$$$$
HAB2021_4c
  SciTegic12132405553D

 26 26  0  0  0  0            999 V2000
    2.0894   -1.6791    1.2621 C   0  0
    1.1042   -1.9759    2.2733 C   0  0
    1.4543   -2.0442    3.5519 C   0  0
    2.8743   -1.8146    3.9592 C   0  0
    3.7953   -1.5371    2.9995 C   0  0
    3.3572   -1.4738    1.6000 C   0  0
    5.2152   -1.2855    3.1988 O   0  0
    5.7617   -1.3196    4.5257 C   0  0
    3.1986   -1.8961    5.3242 O   0  0
    0.4523   -2.3365    4.4918 N   0  0
    1.6767   -1.6071   -0.1776 C   0  0
    0.8733   -0.3499   -0.3778 C   0  0
    1.4311    0.8456   -0.1926 C   0  0
    0.0948   -2.1402    1.9935 H   0  0
    4.0669   -1.2578    0.8427 H   0  0
    6.8395   -1.1079    4.4817 H   0  0
    5.6026   -2.3159    4.9634 H   0  0
    5.2653   -0.5602    5.1474 H   0  0
    2.4125   -2.1031    5.8589 H   0  0
   -0.4807   -2.4829    4.1814 H   0  0
    0.6601   -2.3990    5.4531 H   0  0
    2.5838   -1.5610   -0.7964 H   0  0
    1.0295   -2.4592   -0.4279 H   0  0
   -0.1376   -0.4161   -0.6909 H   0  0
    2.4476    0.9185    0.1037 H   0  0
    0.8589    1.7257   -0.3432 H   0  0
  1  2  1  0
  2  3  2  0
  3  4  1  0
  4  5  2  0
  5  6  1  0
  1  6  2  0
  5  7  1  0
  7  8  1  0
  4  9  1  0
  3 10  1  0
  1 11  1  0
 11 12  1  0
 12 13  2  0
  2 14  1  0
  6 15  1  0
  8 16  1  0
  8 17  1  0
  8 18  1  0
  9 19  1  0
 10 20  1  0
 10 21  1  0
 11 22  1  0
 11 23  1  0
 12 24  1  0
 13 25  1  0
 13 26  1  0
M  END
> <Name>
HAB2021_4c

> <Clean Energy>
26.1563

$$$$
HAB2021_4d
  SciTegic12132405553D

 28 28  0  0  0  0            999 V2000
    1.4130    1.8976   -1.2544 C   0  0
    0.2201    2.7057   -1.2682 C   0  0
   -0.2295    3.2190   -2.4070 C   0  0
    0.4972    2.9641   -3.6885 C   0  0
    1.6210    2.2007   -3.6644 C   0  0
    2.0756    1.6571   -2.3787 C   0  0
    2.4585    1.8435   -4.8003 O   0  0
    2.1142    2.3162   -6.1111 C   0  0
   -0.0150    3.5273   -4.8698 O   0  0
   -1.3968    3.9987   -2.3600 N   0  0
    1.9043    1.3263    0.0326 C   0  0
    1.2616   -0.0542    0.2067 C   0  0
    1.7483   -0.6696    1.5245 C   0  0
   -0.3012    2.8908   -0.3636 H   0  0
    2.9509    1.0594   -2.3473 H   0  0
    2.8539    1.9496   -6.8370 H   0  0
    2.1111    3.4160   -6.1163 H   0  0
    1.1166    1.9435   -6.3861 H   0  0
   -0.8226    4.0399   -4.6916 H   0  0
   -1.8514    4.1453   -1.4882 H   0  0
   -1.7713    4.4023   -3.1773 H   0  0
    2.9942    1.1893    0.0006 H   0  0
    1.5897    1.9553    0.8769 H   0  0
    0.1677    0.0505    0.2300 H   0  0
    1.5512   -0.7029   -0.6322 H   0  0
    1.2920   -1.6609    1.6572 H   0  0
    1.4594   -0.0165    2.3603 H   0  0
    2.8429   -0.7689    1.4979 H   0  0
  1  2  1  0
  2  3  2  0
  3  4  1  0
  4  5  2  0
  5  6  1  0
  1  6  2  0
  5  7  1  0
  7  8  1  0
  4  9  1  0
  3 10  1  0
  1 11  1  0
 11 12  1  0
 12 13  1  0
  2 14  1  0
  6 15  1  0
  8 16  1  0
  8 17  1  0
  8 18  1  0
  9 19  1  0
 10 20  1  0
 10 21  1  0
 11 22  1  0
 11 23  1  0
 12 24  1  0
 12 25  1  0
 13 26  1  0
 13 27  1  0
 13 28  1  0
M  END
> <Name>
HAB2021_4d

> <Clean Energy>
14.0453

$$$$
HAB2021_5a
  SciTegic12132405553D

 46 47  0  0  0  0            999 V2000
    2.2992   -0.4179    0.6672 C   0  0
    3.0499   -1.6992    0.7773 C   0  0
    2.3926   -2.8082    1.1176 C   0  0
    0.9575   -2.7745    1.3801 C   0  0
    0.2702   -1.6397    1.2869 C   0  0
    0.9907   -0.3891    0.9061 C   0  0
   -1.1311   -1.6978    1.5615 O   0  0
   -1.8326   -0.4502    1.4488 C   0  0
    0.3005   -3.9451    1.7332 O   0  0
    2.9764    0.8735    0.2810 C   0  0
    3.2828    1.6388    1.5405 C   0  0
    4.1483    1.1583    2.4318 C   0  0
    4.4517   -1.7561    0.5310 N   0  0
    5.3016   -3.2383    0.6440 S   0  0
    4.6975   -4.2525   -0.3089 O   0  0
    5.1999   -3.8046    2.0477 O   0  0
    7.0100   -3.0262    0.2290 C   0  0
    7.4863   -1.7704   -0.3369 C   0  0
    8.7719   -1.6241   -0.6476 C   0  0
    9.7245   -2.7182   -0.4274 C   0  0
    9.2780   -3.8697    0.0938 C   0  0
    7.8629   -4.0246    0.4338 C   0  0
   11.0947   -2.4733   -0.7939 N   0  0
   12.1042   -3.3545   -0.6707 C   0  0
   11.9508   -4.4927   -0.2181 O   0  0
   13.4741   -2.9332   -1.1038 C   0  0
    2.9095   -3.7257    1.2022 H   0  0
    0.4828    0.5350    0.8183 H   0  0
   -2.8956   -0.6088    1.6798 H   0  0
   -1.7364   -0.0635    0.4234 H   0  0
   -1.4102    0.2767    2.1585 H   0  0
    0.9500   -4.6909    1.7576 H   0  0
    3.9223    0.6365   -0.2192 H   0  0
    2.3031    1.4867   -0.3341 H   0  0
    2.8227    2.5793    1.7085 H   0  0
    4.6258    0.2258    2.2611 H   0  0
    4.3615    1.7093    3.3124 H   0  0
    4.9489   -0.9393    0.3002 H   0  0
    6.8090   -0.9725   -0.5019 H   0  0
    9.1121   -0.7080   -1.0591 H   0  0
    9.9311   -4.6741    0.2649 H   0  0
    7.5153   -4.9383    0.8447 H   0  0
   11.3130   -1.5793   -1.1699 H   0  0
   14.1078   -3.8123   -1.2901 H   0  0
   13.9201   -2.3403   -0.2925 H   0  0
   13.4021   -2.2791   -1.9848 H   0  0
  1  2  1  0
  2  3  2  0
  3  4  1  0
  4  5  2  0
  5  6  1  0
  1  6  2  0
  5  7  1  0
  7  8  1  0
  4  9  1  0
  1 10  1  0
 10 11  1  0
  2 13  1  0
 13 14  1  0
 14 17  1  0
 18 19  2  0
 19 20  1  0
 20 21  2  0
 21 22  1  0
 17 18  1  0
 17 22  2  0
 20 23  1  0
 23 24  1  0
 24 26  1  0
 24 25  2  0
 14 15  2  0
 14 16  2  0
 11 12  2  0
  3 27  1  0
  6 28  1  0
  8 29  1  0
  8 30  1  0
  8 31  1  0
  9 32  1  0
 10 33  1  0
 10 34  1  0
 11 35  1  0
 12 36  1  0
 12 37  1  0
 13 38  1  0
 18 39  1  0
 19 40  1  0
 21 41  1  0
 22 42  1  0
 23 43  1  0
 26 44  1  0
 26 45  1  0
 26 46  1  0
M  END
> <Name>
HAB2021_5a

> <Clean Energy>
40.5928

$$$$
HAB2021_5b
  SciTegic12132405553D

 48 49  0  0  0  0            999 V2000
    3.1576    4.0079    2.0551 C   0  0
    4.0416    2.8200    1.9552 C   0  0
    4.9048    2.7373    0.9424 C   0  0
    4.9834    3.7974   -0.0588 C   0  0
    4.1987    4.8690    0.0152 C   0  0
    3.2284    4.9748    1.1448 C   0  0
    4.3417    5.8587   -1.0057 O   0  0
    3.4756    6.9973   -0.8844 C   0  0
    5.8909    3.6846   -1.1031 O   0  0
    2.1735    4.1561    3.1751 C   0  0
    2.9306    4.6951    4.3949 C   0  0
    1.9509    4.8484    5.5638 C   0  0
    3.9814    1.7754    2.9217 N   0  0
    5.0342    0.4317    2.8296 S   0  0
    6.4714    0.9171    2.8478 O   0  0
    4.8113   -0.3469    1.5469 O   0  0
    4.7843   -0.6317    4.2191 C   0  0
    4.1680   -0.1175    5.4342 C   0  0
    3.9825   -0.9202    6.4788 C   0  0
    4.3947   -2.3274    6.4235 C   0  0
    4.9617   -2.7923    5.3009 C   0  0
    5.1624   -1.9040    4.1547 C   0  0
    4.1571   -3.1225    7.5993 N   0  0
    4.4701   -4.4237    7.7371 C   0  0
    5.0076   -5.0836    6.8430 O   0  0
    4.1516   -5.0993    9.0349 C   0  0
    5.5418    1.8986    0.8559 H   0  0
    2.5863    5.8099    1.2447 H   0  0
    3.6681    7.6905   -1.7155 H   0  0
    3.6701    7.5095    0.0697 H   0  0
    2.4262    6.6688   -0.9196 H   0  0
    6.3922    2.8367   -1.0115 H   0  0
    1.3860    4.8737    2.9060 H   0  0
    1.7615    3.1761    3.4523 H   0  0
    3.7270    3.9889    4.6728 H   0  0
    3.3727    5.6714    4.1512 H   0  0
    2.4862    5.2340    6.4431 H   0  0
    1.5110    3.8690    5.8009 H   0  0
    1.1533    5.5503    5.2813 H   0  0
    3.3318    1.8182    3.6628 H   0  0
    3.8662    0.8987    5.4860 H   0  0
    3.5328   -0.5400    7.3606 H   0  0
    5.2692   -3.7937    5.2259 H   0  0
    5.6118   -2.2765    3.2693 H   0  0
    3.7264   -2.6723    8.3741 H   0  0
    4.8285   -5.9501    9.1994 H   0  0
    3.1240   -5.4853    8.9729 H   0  0
    4.1882   -4.3719    9.8588 H   0  0
  1  2  1  0
  2  3  2  0
  3  4  1  0
  4  5  2  0
  5  6  1  0
  1  6  2  0
  5  7  1  0
  7  8  1  0
  4  9  1  0
  1 10  1  0
 10 11  1  0
  2 13  1  0
 11 12  1  0
 13 14  1  0
 14 17  1  0
 18 19  2  0
 19 20  1  0
 20 21  2  0
 21 22  1  0
 17 18  1  0
 17 22  2  0
 20 23  1  0
 23 24  1  0
 24 26  1  0
 24 25  2  0
 14 15  2  0
 14 16  2  0
  3 27  1  0
  6 28  1  0
  8 29  1  0
  8 30  1  0
  8 31  1  0
  9 32  1  0
 10 33  1  0
 10 34  1  0
 11 35  1  0
 11 36  1  0
 12 37  1  0
 12 38  1  0
 12 39  1  0
 13 40  1  0
 18 41  1  0
 19 42  1  0
 21 43  1  0
 22 44  1  0
 23 45  1  0
 26 46  1  0
 26 47  1  0
 26 48  1  0
M  END
> <Name>
HAB2021_5b

> <Clean Energy>
28.3459

$$$$
HAB2021_5c
  SciTegic12132405553D

 46 47  0  0  0  0            999 V2000
    1.6736   -1.5546    4.6646 C   0  0
    3.0798   -1.4670    4.3177 C   0  0
    3.8725   -2.5324    4.4250 C   0  0
    3.3019   -3.8194    4.8961 C   0  0
    2.0119   -3.9085    5.2164 C   0  0
    1.1480   -2.6968    5.0924 C   0  0
    1.5373   -5.1783    5.6684 O   0  0
    0.1441   -5.2279    6.0118 C   0  0
    4.0958   -4.9632    5.0206 O   0  0
    5.2481   -2.4318    4.0973 N   0  0
    0.8177   -0.3415    4.5493 C   0  0
    0.7732    0.2774    5.9103 C   0  0
    1.4606    1.3900    6.1533 C   0  0
    5.9547   -0.9342    3.6441 S   0  0
    5.4910    0.1681    4.5785 O   0  0
    5.5616   -0.5564    2.2288 O   0  0
    7.7138   -1.0357    3.7708 C   0  0
    9.8763   -0.1450    3.1749 C   0  0
   10.5074   -1.1796    4.0038 C   0  0
    9.7261   -2.0593    4.6462 C   0  0
    8.2723   -1.9788    4.5224 C   0  0
    8.5516   -0.0785    3.0653 C   0  0
   11.9449   -1.1747    4.0734 N   0  0
   12.6935   -2.0360    4.7868 C   0  0
   12.2077   -2.9427    5.4694 O   0  0
   14.1823   -1.8846    4.7525 C   0  0
    3.4693   -0.5457    3.9824 H   0  0
    0.1194   -2.7210    5.3400 H   0  0
   -0.1119   -6.2436    6.3452 H   0  0
   -0.4633   -4.9692    5.1322 H   0  0
   -0.0612   -4.5153    6.8249 H   0  0
    5.0185   -4.7742    4.7600 H   0  0
    5.8215   -3.2311    4.1487 H   0  0
    1.2560    0.3720    3.8373 H   0  0
   -0.2014   -0.6631    4.2924 H   0  0
    0.2105   -0.1804    6.6842 H   0  0
    2.0349    1.8364    5.3805 H   0  0
    1.4377    1.8280    7.1190 H   0  0
   10.4825    0.5565    2.6602 H   0  0
   10.1419   -2.8122    5.2481 H   0  0
    7.6594   -2.6731    5.0390 H   0  0
    8.1058    0.6740    2.4653 H   0  0
   12.4238   -0.4752    3.5541 H   0  0
   14.6659   -2.8633    4.8833 H   0  0
   14.4775   -1.2488    5.5999 H   0  0
   14.4940   -1.3860    3.8235 H   0  0
  1  2  1  0
  2  3  2  0
  3  4  1  0
  4  5  2  0
  5  6  1  0
  1  6  2  0
  5  7  1  0
  7  8  1  0
  4  9  1  0
  3 10  1  0
  1 11  1  0
 11 12  1  0
 10 14  1  0
 14 17  1  0
 18 19  1  0
 19 20  2  0
 20 21  1  0
 18 22  2  0
 21 17  2  0
 17 22  1  0
 19 23  1  0
 23 24  1  0
 24 25  2  0
 24 26  1  0
 14 15  2  0
 14 16  2  0
 12 13  2  0
  2 27  1  0
  6 28  1  0
  8 29  1  0
  8 30  1  0
  8 31  1  0
  9 32  1  0
 10 33  1  0
 11 34  1  0
 11 35  1  0
 12 36  1  0
 13 37  1  0
 13 38  1  0
 18 39  1  0
 20 40  1  0
 21 41  1  0
 22 42  1  0
 23 43  1  0
 26 44  1  0
 26 45  1  0
 26 46  1  0
M  END
> <Name>
HAB2021_5c

> <Clean Energy>
40.8879

$$$$
HAB2021_5d
  SciTegic12132405553D

 48 49  0  0  0  0            999 V2000
    0.3351    7.1927    2.5563 C   0  0
   -0.5765    6.0618    2.6788 C   0  0
   -0.3703    4.9506    1.9725 C   0  0
    0.7947    4.8764    1.0559 C   0  0
    1.6215    5.9098    0.9272 C   0  0
    1.3752    7.1404    1.7312 C   0  0
    2.7017    5.7634    0.0049 O   0  0
    3.5568    6.9057   -0.1285 C   0  0
    1.0460    3.7340    0.2862 O   0  0
   -1.2467    3.8420    2.0728 N   0  0
    0.1052    8.4229    3.3670 C   0  0
   -0.9352    9.2838    2.6472 C   0  0
   -1.1809   10.5532    3.4731 C   0  0
   -2.8445    3.9550    2.7057 S   0  0
   -3.3469    5.3826    2.8115 O   0  0
   -2.9228    3.3136    4.0777 O   0  0
   -3.9071    3.0820    1.5887 C   0  0
   -6.1205    2.3341    0.9788 C   0  0
   -5.5505    1.7063   -0.2250 C   0  0
   -4.2325    1.8036   -0.4389 C   0  0
   -3.3871    2.5185    0.5023 C   0  0
   -5.3386    2.9862    1.8390 C   0  0
   -6.4577    1.0198   -1.1093 N   0  0
   -6.1068    0.3900   -2.2482 C   0  0
   -4.9429    0.3365   -2.6566 O   0  0
   -7.1745   -0.2755   -3.0566 C   0  0
   -1.3960    6.1280    3.3384 H   0  0
    2.0146    7.9809    1.6669 H   0  0
    4.3451    6.6843   -0.8620 H   0  0
    4.0161    7.1400    0.8420 H   0  0
    2.9674    7.7676   -0.4768 H   0  0
    0.3729    3.0466    0.4497 H   0  0
   -0.9728    2.9875    1.6749 H   0  0
   -0.3114    8.1580    4.3486 H   0  0
    1.0348    9.0025    3.4559 H   0  0
   -0.5608    9.5572    1.6507 H   0  0
   -1.8738    8.7205    2.5467 H   0  0
   -1.9274   11.1819    2.9680 H   0  0
   -0.2379   11.1101    3.5735 H   0  0
   -1.5491   10.2735    4.4706 H   0  0
   -7.1628    2.2667    1.1618 H   0  0
   -3.7890    1.3709   -1.2848 H   0  0
   -2.3485    2.5919    0.3167 H   0  0
   -5.7578    3.4364    2.7030 H   0  0
   -7.4195    1.0105   -0.8596 H   0  0
   -6.7376   -1.0407   -3.7150 H   0  0
   -7.6560    0.4915   -3.6798 H   0  0
   -7.9445   -0.6900   -2.3911 H   0  0
  1  2  1  0
  2  3  2  0
  3  4  1  0
  4  5  2  0
  5  6  1  0
  1  6  2  0
  5  7  1  0
  7  8  1  0
  4  9  1  0
  3 10  1  0
  1 11  1  0
 11 12  1  0
 12 13  1  0
 10 14  1  0
 14 17  1  0
 18 19  1  0
 19 20  2  0
 20 21  1  0
 18 22  2  0
 21 17  2  0
 17 22  1  0
 19 23  1  0
 23 24  1  0
 24 25  2  0
 24 26  1  0
 14 15  2  0
 14 16  2  0
  2 27  1  0
  6 28  1  0
  8 29  1  0
  8 30  1  0
  8 31  1  0
  9 32  1  0
 10 33  1  0
 11 34  1  0
 11 35  1  0
 12 36  1  0
 12 37  1  0
 13 38  1  0
 13 39  1  0
 13 40  1  0
 18 41  1  0
 20 42  1  0
 21 43  1  0
 22 44  1  0
 23 45  1  0
 26 46  1  0
 26 47  1  0
 26 48  1  0
M  END
> <Name>
HAB2021_5d

> <Clean Energy>
31.6711

$$$$
HAB2021_6a
  SciTegic12132405553D

 41 42  0  0  0  0            999 V2000
    2.4197   -0.4571    0.7431 C   0  0
    3.2179   -1.7111    0.8250 C   0  0
    2.6014   -2.8498    1.1446 C   0  0
    1.1671   -2.8741    1.4114 C   0  0
    0.4382   -1.7642    1.3421 C   0  0
    1.1110   -0.4814    0.9851 C   0  0
   -0.9590   -1.8789    1.6194 O   0  0
   -1.7055   -0.6554    1.5348 C   0  0
    0.5549   -4.0750    1.7429 O   0  0
    3.0499    0.8615    0.3907 C   0  0
    3.0216    1.7034    1.6278 C   0  0
    4.0740    1.7226    2.4403 C   0  0
    4.6215   -1.7188    0.5685 N   0  0
    5.5112   -3.1820    0.6076 S   0  0
    4.8727   -4.1851   -0.3347 O   0  0
    5.5143   -3.7768    2.0030 O   0  0
    7.1746   -2.9078    0.0763 C   0  0
    7.5024   -1.7427   -0.7465 C   0  0
    8.7555   -1.5444   -1.1494 C   0  0
    9.8039   -2.4911   -0.7698 C   0  0
    9.5061   -3.5509   -0.0208 C   0  0
    8.1289   -3.7689    0.4218 C   0  0
   11.1138   -2.2850   -1.1923 N   0  0
    3.1507   -3.7495    1.2087 H   0  0
    0.5684    0.4247    0.9185 H   0  0
   -2.7611   -0.8570    1.7655 H   0  0
   -1.6270   -0.2442    0.5174 H   0  0
   -1.3068    0.0714    2.2583 H   0  0
    1.2317   -4.7965    1.7510 H   0  0
    4.0801    0.7144    0.0519 H   0  0
    2.4094    1.3567   -0.3521 H   0  0
    2.1599    2.2778    1.8591 H   0  0
    4.9312    1.1414    2.2095 H   0  0
    4.0546    2.3165    3.3193 H   0  0
    5.0962   -0.8815    0.3586 H   0  0
    6.7410   -1.0571   -1.0215 H   0  0
    8.9944   -0.7006   -1.7458 H   0  0
   10.2672   -4.2367    0.2531 H   0  0
    7.8898   -4.6141    1.0163 H   0  0
   11.3361   -1.4939   -1.7521 H   0  0
   11.8260   -2.9294   -0.9350 H   0  0
  1  2  1  0
  2  3  2  0
  3  4  1  0
  4  5  2  0
  5  6  1  0
  1  6  2  0
  5  7  1  0
  7  8  1  0
  4  9  1  0
  1 10  1  0
 10 11  1  0
  2 13  1  0
 13 14  1  0
 14 17  1  0
 18 19  2  0
 19 20  1  0
 20 21  2  0
 21 22  1  0
 17 18  1  0
 17 22  2  0
 20 23  1  0
 14 15  2  0
 14 16  2  0
 11 12  2  0
  3 24  1  0
  6 25  1  0
  8 26  1  0
  8 27  1  0
  8 28  1  0
  9 29  1  0
 10 30  1  0
 10 31  1  0
 11 32  1  0
 12 33  1  0
 12 34  1  0
 13 35  1  0
 18 36  1  0
 19 37  1  0
 21 38  1  0
 22 39  1  0
 23 40  1  0
 23 41  1  0
M  END
> <Name>
HAB2021_6a

> <Clean Energy>
26.0011

$$$$
HAB2021_6b
  SciTegic12132405553D

 43 44  0  0  0  0            999 V2000
    2.6137    2.4231    0.4825 C   0  0
    2.4418    1.4447    1.5851 C   0  0
    1.2171    1.0079    1.8798 C   0  0
    0.0563    1.4818    1.1311 C   0  0
    0.1920    2.3578    0.1392 C   0  0
    1.5579    2.8550   -0.2012 C   0  0
   -0.9958    2.7671   -0.5417 O   0  0
   -0.8007    3.7113   -1.6056 C   0  0
   -1.2073    1.0102    1.4595 O   0  0
    3.9673    2.9442    0.1059 C   0  0
    4.6468    1.8916   -0.7789 C   0  0
    6.0413    2.3933   -1.1705 C   0  0
    3.5615    0.9684    2.3252 N   0  0
    3.3717   -0.2035    3.5530 S   0  0
    2.6743   -1.4214    2.9769 O   0  0
    2.5383    0.3361    4.6998 O   0  0
    4.9603   -0.6968    4.1436 C   0  0
    6.1227   -0.6236    3.2578 C   0  0
    7.3210   -0.9968    3.7009 C   0  0
    7.4742   -1.4802    5.0728 C   0  0
    6.4169   -1.5470    5.8790 C   0  0
    5.0994   -1.1364    5.3921 C   0  0
    8.7272   -1.8711    5.5356 N   0  0
    1.0767    0.3115    2.6621 H   0  0
    1.7133    3.5510   -0.9830 H   0  0
   -1.7726    3.9554   -2.0577 H   0  0
   -0.1424    3.2744   -2.3713 H   0  0
   -0.3440    4.6290   -1.2063 H   0  0
   -1.1336    0.3719    2.2117 H   0  0
    3.8773    3.8790   -0.4647 H   0  0
    4.5899    3.0672    1.0027 H   0  0
    4.7390    0.9482   -0.2203 H   0  0
    4.0442    1.7269   -1.6831 H   0  0
    6.5362    1.6440   -1.8046 H   0  0
    6.6374    2.5578   -0.2613 H   0  0
    5.9466    3.3388   -1.7233 H   0  0
    4.4690    1.3040    2.1297 H   0  0
    6.0093   -0.2720    2.2623 H   0  0
    8.1643   -0.9438    3.0600 H   0  0
    6.5300   -1.8979    6.8733 H   0  0
    4.2557   -1.1894    6.0326 H   0  0
    9.5166   -1.8212    4.9332 H   0  0
    8.8317   -2.2002    6.4679 H   0  0
  1  2  1  0
  2  3  2  0
  3  4  1  0
  4  5  2  0
  5  6  1  0
  1  6  2  0
  5  7  1  0
  7  8  1  0
  4  9  1  0
  1 10  1  0
 10 11  1  0
  2 13  1  0
 13 14  1  0
 14 17  1  0
 18 19  2  0
 19 20  1  0
 20 21  2  0
 21 22  1  0
 17 18  1  0
 17 22  2  0
 20 23  1  0
 14 15  2  0
 14 16  2  0
 11 12  1  0
  3 24  1  0
  6 25  1  0
  8 26  1  0
  8 27  1  0
  8 28  1  0
  9 29  1  0
 10 30  1  0
 10 31  1  0
 11 32  1  0
 11 33  1  0
 12 34  1  0
 12 35  1  0
 12 36  1  0
 13 37  1  0
 18 38  1  0
 19 39  1  0
 21 40  1  0
 22 41  1  0
 23 42  1  0
 23 43  1  0
M  END
> <Name>
HAB2021_6b

> <Clean Energy>
13.2971

$$$$
HAB2021_6c
  SciTegic12132405553D

 41 42  0  0  0  0            999 V2000
    1.8428   -1.5558    4.7190 C   0  0
    3.2441   -1.4318    4.3469 C   0  0
    4.0846   -2.4506    4.5235 C   0  0
    3.5797   -3.7212    5.0994 C   0  0
    2.2984   -3.8445    5.4423 C   0  0
    1.3770   -2.6869    5.2375 C   0  0
    1.8877   -5.0973    5.9938 O   0  0
    0.5007   -5.1864    6.3540 C   0  0
    4.4274   -4.8145    5.2992 O   0  0
    5.4467   -2.3128    4.1658 N   0  0
    0.9147   -0.3988    4.5167 C   0  0
    0.7603    0.3012    5.8381 C   0  0
    1.7720    0.9985    6.3519 C   0  0
    6.0550   -0.8316    3.5585 S   0  0
    5.6953    0.2940    4.5105 O   0  0
    5.4539   -0.5154    2.2022 O   0  0
    7.8161   -0.9020    3.4272 C   0  0
    9.8978   -1.9367    4.1032 C   0  0
   10.6002   -1.0005    3.2270 C   0  0
    9.9143   -0.1018    2.5239 C   0  0
    8.4556   -0.0502    2.6291 C   0  0
    8.5711   -1.8898    4.1990 C   0  0
   11.9875   -1.0485    3.1289 N   0  0
    3.5895   -0.5213    3.9375 H   0  0
    0.3525   -2.7417    5.4966 H   0  0
    0.2955   -6.1850    6.7653 H   0  0
   -0.1240   -5.0239    5.4633 H   0  0
    0.2666   -4.4249    7.1130 H   0  0
    5.3376   -4.6037    5.0120 H   0  0
    6.0629   -3.0730    4.2776 H   0  0
    1.3785    0.2951    3.8015 H   0  0
   -0.0747   -0.7604    4.2037 H   0  0
   -0.1644    0.2541    6.3548 H   0  0
    2.6948    1.0581    5.8303 H   0  0
    1.6555    1.4947    7.2818 H   0  0
   10.4455   -2.6522    4.6623 H   0  0
   10.4254    0.5768    1.8893 H   0  0
    7.9078    0.6666    2.0715 H   0  0
    8.0606   -2.5681    4.8349 H   0  0
   12.4993   -1.7195    3.6548 H   0  0
   12.4657   -0.4112    2.5344 H   0  0
  1  2  1  0
  2  3  2  0
  3  4  1  0
  4  5  2  0
  5  6  1  0
  1  6  2  0
  5  7  1  0
  7  8  1  0
  4  9  1  0
  3 10  1  0
  1 11  1  0
 11 12  1  0
 10 14  1  0
 14 17  1  0
 18 19  1  0
 19 20  2  0
 20 21  1  0
 18 22  2  0
 21 17  2  0
 17 22  1  0
 19 23  1  0
 14 15  2  0
 14 16  2  0
 12 13  2  0
  2 24  1  0
  6 25  1  0
  8 26  1  0
  8 27  1  0
  8 28  1  0
  9 29  1  0
 10 30  1  0
 11 31  1  0
 11 32  1  0
 12 33  1  0
 13 34  1  0
 13 35  1  0
 18 36  1  0
 20 37  1  0
 21 38  1  0
 22 39  1  0
 23 40  1  0
 23 41  1  0
M  END
> <Name>
HAB2021_6c

> <Clean Energy>
25.6428

$$$$
HAB2021_6d
  SciTegic12132405553D

 43 44  0  0  0  0            999 V2000
    0.7693    2.3771    4.4767 C   0  0
   -0.3954    2.6952    3.6684 C   0  0
   -0.7914    3.9592    3.5198 C   0  0
   -0.0308    5.0452    4.1857 C   0  0
    1.0381    4.7622    4.9287 C   0  0
    1.4598    3.3376    5.0808 C   0  0
    1.7180    5.8604    5.5403 O   0  0
    2.8623    5.5110    6.3341 C   0  0
   -0.4120    6.3835    4.0546 O   0  0
   -1.9301    4.2539    2.7334 N   0  0
    1.1908    0.9560    4.6324 C   0  0
    0.3227    0.3286    5.7287 C   0  0
    0.7276   -1.1396    5.9084 C   0  0
   -2.8344    3.0051    1.9906 S   0  0
   -3.2998    2.0259    3.0520 O   0  0
   -1.9905    2.2499    0.9813 O   0  0
   -4.2587    3.6779    1.1903 C   0  0
   -5.8913    5.4581    1.0331 C   0  0
   -6.5149    4.7327   -0.0730 C   0  0
   -6.0082    3.5705   -0.4786 C   0  0
   -4.8262    3.0179    0.1834 C   0  0
   -4.8160    4.9552    1.6355 C   0  0
   -7.6399    5.2580   -0.7018 N   0  0
   -0.9276    1.9119    3.1996 H   0  0
    2.3015    3.0675    5.6625 H   0  0
    3.3057    6.4248    6.7545 H   0  0
    3.6069    5.0010    5.7050 H   0  0
    2.5539    4.8453    7.1541 H   0  0
   -1.2058    6.4632    3.4897 H   0  0
   -2.2160    5.1891    2.6127 H   0  0
    0.9997    0.3988    3.7048 H   0  0
    2.2437    0.8962    4.9416 H   0  0
    0.4735    0.8721    6.6722 H   0  0
   -0.7357    0.3852    5.4369 H   0  0
    0.1088   -1.5974    6.6933 H   0  0
    1.7870   -1.1928    6.1969 H   0  0
    0.5778   -1.6772    4.9612 H   0  0
   -6.2959    6.3839    1.3550 H   0  0
   -6.4619    3.0456   -1.2806 H   0  0
   -4.4220    2.0914   -0.1376 H   0  0
   -4.3627    5.4802    2.4382 H   0  0
   -8.0183    6.1259   -0.3984 H   0  0
   -8.0645    4.7645   -1.4532 H   0  0
  1  2  1  0
  2  3  2  0
  3  4  1  0
  4  5  2  0
  5  6  1  0
  1  6  2  0
  5  7  1  0
  7  8  1  0
  4  9  1  0
  3 10  1  0
  1 11  1  0
 11 12  1  0
 10 14  1  0
 14 17  1  0
 18 19  1  0
 19 20  2  0
 20 21  1  0
 18 22  2  0
 21 17  2  0
 17 22  1  0
 19 23  1  0
 14 15  2  0
 14 16  2  0
 12 13  1  0
  2 24  1  0
  6 25  1  0
  8 26  1  0
  8 27  1  0
  8 28  1  0
  9 29  1  0
 10 30  1  0
 11 31  1  0
 11 32  1  0
 12 33  1  0
 12 34  1  0
 13 35  1  0
 13 36  1  0
 13 37  1  0
 18 38  1  0
 20 39  1  0
 21 40  1  0
 22 41  1  0
 23 42  1  0
 23 43  1  0
M  END
> <Name>
HAB2021_6d

> <Clean Energy>
13.4842

$$$$
HAB2021_6e
  SciTegic12132405553D

 41 42  0  0  0  0            999 V2000
    1.4869    1.5489    2.3890 C   0  0
    0.1168    2.0064    2.2316 C   0  0
   -0.3529    3.0063    2.9774 C   0  0
    0.5365    3.6543    3.9726 C   0  0
    1.7937    3.2408    4.1236 C   0  0
    2.2950    2.1174    3.2767 C   0  0
    2.5890    3.9118    5.1032 O   0  0
    3.9364    3.4334    5.2353 C   0  0
    0.0834    4.7062    4.7737 O   0  0
   -1.6903    3.4386    2.8161 N   0  0
    1.9892    0.4264    1.5469 C   0  0
    1.5253   -0.8850    2.1905 C   0  0
    2.0209   -2.0616    1.3411 C   0  0
   -2.7337    2.6739    1.6955 S   0  0
   -2.8143    1.1933    2.0171 O   0  0
   -2.2141    2.8263    0.2785 O   0  0
   -4.3587    3.3588    1.8087 C   0  0
   -6.0204    4.5287    3.1243 C   0  0
   -6.9323    4.4341    1.9826 C   0  0
   -6.5351    3.8355    0.8613 C   0  0
   -5.1871    3.2724    0.7706 C   0  0
   -4.7947    4.0160    3.0410 C   0  0
   -0.5056    1.5360    1.5187 H   0  0
    3.2859    1.7565    3.3642 H   0  0
    4.4543    4.0153    6.0108 H   0  0
    4.4657    3.5501    4.2779 H   0  0
    3.9248    2.3716    5.5235 H   0  0
   -0.8495    4.9174    4.5722 H   0  0
   -2.0344    4.1860    3.3581 H   0  0
    1.5425    0.4741    0.5441 H   0  0
    3.0875    0.4308    1.5110 H   0  0
    1.9388   -0.9617    3.2061 H   0  0
    0.4271   -0.9028    2.2383 H   0  0
    1.6918   -3.0068    1.7959 H   0  0
    3.1189   -2.0391    1.2925 H   0  0
    1.6070   -1.9779    0.3260 H   0  0
   -6.3363    5.0053    4.0175 H   0  0
   -7.9090    4.8420    2.0487 H   0  0
   -7.1955    3.7665    0.0343 H   0  0
   -4.8701    2.7946   -0.1216 H   0  0
   -4.1334    4.0839    3.8676 H   0  0
  1  2  1  0
  2  3  2  0
  3  4  1  0
  4  5  2  0
  5  6  1  0
  1  6  2  0
  5  7  1  0
  7  8  1  0
  4  9  1  0
  3 10  1  0
  1 11  1  0
 11 12  1  0
 10 14  1  0
 14 17  1  0
 18 19  1  0
 19 20  2  0
 20 21  1  0
 18 22  2  0
 21 17  2  0
 17 22  1  0
 14 15  2  0
 14 16  2  0
 12 13  1  0
  2 23  1  0
  6 24  1  0
  8 25  1  0
  8 26  1  0
  8 27  1  0
  9 28  1  0
 10 29  1  0
 11 30  1  0
 11 31  1  0
 12 32  1  0
 12 33  1  0
 13 34  1  0
 13 35  1  0
 13 36  1  0
 18 37  1  0
 19 38  1  0
 20 39  1  0
 21 40  1  0
 22 41  1  0
M  END
> <Name>
HAB2021_6e

> <Clean Energy>
14.0964

$$$$
HAB2021_6f
  SciTegic12132405553D

 43 44  0  0  0  0            999 V2000
    0.8035    2.3882    4.4644 C   0  0
   -0.2861    2.6953    3.5527 C   0  0
   -0.6739    3.9558    3.3611 C   0  0
    0.0237    5.0500    4.0823 C   0  0
    1.0223    4.7769    4.9200 C   0  0
    1.4332    3.3560    5.1209 C   0  0
    1.6389    5.8827    5.5825 O   0  0
    2.7037    5.5447    6.4838 C   0  0
   -0.3474    6.3869    3.9089 O   0  0
   -1.7465    4.2469    2.4815 N   0  0
    1.2125    0.9701    4.6721 C   0  0
    0.2308    0.3442    5.6699 C   0  0
    0.6180   -1.1211    5.9026 C   0  0
   -2.6496    3.0016    1.7206 S   0  0
   -2.9735    1.8980    2.7105 O   0  0
   -1.8668    2.3929    0.5730 O   0  0
   -4.1799    3.6513    1.1197 C   0  0
   -5.8069    5.4439    1.1336 C   0  0
   -6.6121    4.6665    0.1912 C   0  0
   -6.1849    3.4758   -0.2257 C   0  0
   -4.9107    2.9439    0.2613 C   0  0
   -4.6488    4.9598    1.5756 C   0  0
   -7.8279    5.1742   -0.2672 N   0  3
   -8.4795    4.5509   -1.0213 O   0  0
   -8.2507    6.3572    0.1517 O   0  5
   -0.7703    1.9069    3.0452 H   0  0
    2.2194    3.0939    5.7789 H   0  0
    3.1025    6.4640    6.9358 H   0  0
    3.5058    5.0316    5.9333 H   0  0
    2.3203    4.8857    7.2772 H   0  0
   -1.0879    6.4620    3.2761 H   0  0
   -1.9999    5.1834    2.3172 H   0  0
    1.1255    0.4075    3.7322 H   0  0
    2.2260    0.9168    5.0936 H   0  0
    0.2744    0.8935    6.6210 H   0  0
   -0.7892    0.3945    5.2628 H   0  0
   -0.0826   -1.5766    6.6170 H   0  0
    1.6390   -1.1685    6.3072 H   0  0
    0.5759   -1.6651    4.9482 H   0  0
   -6.1455    6.3921    1.4658 H   0  0
   -6.7680    2.9111   -0.9079 H   0  0
   -4.5717    1.9938   -0.0660 H   0  0
   -4.0660    5.5225    2.2598 H   0  0
  1  2  1  0
  2  3  2  0
  3  4  1  0
  4  5  2  0
  5  6  1  0
  1  6  2  0
  5  7  1  0
  7  8  1  0
  4  9  1  0
  3 10  1  0
  1 11  1  0
 11 12  1  0
 10 14  1  0
 14 17  1  0
 18 19  1  0
 19 20  2  0
 20 21  1  0
 18 22  2  0
 21 17  2  0
 17 22  1  0
 19 23  1  0
 14 15  2  0
 14 16  2  0
 12 13  1  0
 23 25  1  0
 23 24  2  0
  2 26  1  0
  6 27  1  0
  8 28  1  0
  8 29  1  0
  8 30  1  0
  9 31  1  0
 10 32  1  0
 11 33  1  0
 11 34  1  0
 12 35  1  0
 12 36  1  0
 13 37  1  0
 13 38  1  0
 13 39  1  0
 18 40  1  0
 20 41  1  0
 21 42  1  0
 22 43  1  0
M  CHG  2  23   1  25  -1
M  END
> <Name>
HAB2021_6f

> <Clean Energy>
13.815

$$$$
DJA2020_1
  SciTegic12132405553D

 24 24  0  0  0  0            999 V2000
    1.5664   -2.8186    3.7566 C   0  0
    2.8949   -2.9155    4.3886 C   0  0
    3.9977   -2.6558    3.6914 C   0  0
    3.9044   -2.2716    2.2937 C   0  0
    2.7155   -2.1792    1.7090 C   0  0
    1.4923   -2.4618    2.4597 C   0  0
    2.6311   -1.7803    0.2736 C   0  0
    2.1118   -0.3794    0.1916 C   0  0
    2.2694    0.3188   -0.9292 C   0  0
    0.4246   -3.1167    4.5825 O   0  0
   -0.8690   -3.0205    3.9588 C   0  0
    3.0054   -3.2814    5.7279 O   0  0
    4.9474   -2.7288    4.1573 H   0  0
    4.7840   -2.0636    1.7396 H   0  0
    0.5680   -2.3762    1.9552 H   0  0
    3.5986   -1.8462   -0.2435 H   0  0
    1.8838   -2.4073   -0.2326 H   0  0
    1.6332    0.0609    1.0297 H   0  0
    2.7590   -0.1203   -1.7617 H   0  0
    1.9077    1.3142   -0.9897 H   0  0
   -1.6467   -3.2713    4.6943 H   0  0
   -0.9253   -3.7237    3.1146 H   0  0
   -1.0285   -1.9944    3.5952 H   0  0
    2.1084   -3.4402    6.1078 H   0  0
  1  2  1  0
  2  3  2  0
  3  4  1  0
  4  5  2  0
  5  6  1  0
  1  6  2  0
  5  7  1  0
  7  8  1  0
  1 10  1  0
 10 11  1  0
  2 12  1  0
  8  9  2  0
  3 13  1  0
  4 14  1  0
  6 15  1  0
  7 16  1  0
  7 17  1  0
  8 18  1  0
  9 19  1  0
  9 20  1  0
 11 21  1  0
 11 22  1  0
 11 23  1  0
 12 24  1  0
M  END
> <Name>
DJA2020_1

> <Clean Energy>
21.0275001525879

$$$$
DJA2020_2
  SciTegic12132405553D

 65 66  0  0  0  0            999 V2000
    2.9972   -0.7366    2.4688 C   0  0
    1.7079   -1.4206    2.3277 C   0  0
    1.5007   -2.2442    1.2830 C   0  0
    2.5623   -2.4782    0.3147 C   0  0
    3.7373   -1.8766    0.4386 C   0  0
    3.9700   -0.9488    1.5622 C   0  0
    4.8080   -2.1685   -0.6009 C   0  0
    6.1683   -1.6879   -0.1758 C   0  0
    6.9375   -2.4523    0.5971 C   0  0
    3.1158    0.1613    3.5885 O   0  0
    4.3521    0.8884    3.7127 C   0  0
    0.7327   -1.1431    3.3488 O   0  0
   -1.9062   -0.6420   -0.5720 O   0  0
   -2.8367   -0.4100    0.4831 C   0  0
   -2.4387   -1.2848    1.6772 C   0  0  1  0  0  0
   -1.1213   -0.9173    2.0251 O   0  0
   -0.5965   -1.6403    3.1350 C   0  0  2  0  0  0
   -1.4249   -1.3712    4.3923 C   0  0  2  0  0  0
   -0.7512   -2.1001    5.4808 O   0  0
   -2.9042   -1.8762    4.1313 C   0  0  1  0  0  0
   -3.6822   -1.5992    5.3448 O   0  0
   -3.4168   -1.0450    2.8741 C   0  0  2  0  0  0
   -4.7991   -1.3289    2.4363 O   0  0
   -2.2084    0.1626   -1.6602 C   0  0
   -3.1719    0.9361   -1.6165 O   0  0
   -1.3503    0.1017   -2.8865 C   0  0
   -5.1057   -2.6182    1.9028 C   0  0
   -6.4998   -2.8733    1.4104 C   0  0
   -4.2688   -3.5270    1.8425 O   0  0
   -4.8973   -2.2839    5.6908 C   0  0
   -5.4262   -3.5148    5.0043 C   0  0
   -5.4858   -1.9091    6.7104 O   0  0
   -1.0136   -1.7958    6.8666 C   0  0
   -1.8371   -0.6153    7.3570 C   0  0
   -0.4465   -2.4881    7.7188 O   0  0
    0.5833   -2.7519    1.1502 H   0  0
    2.3963   -3.1429   -0.4951 H   0  0
    4.8978   -0.4613    1.6372 H   0  0
    4.8041   -3.2540   -0.7771 H   0  0
    4.5051   -1.6640   -1.5281 H   0  0
    6.5173   -0.7393   -0.4967 H   0  0
    6.5892   -3.4013    0.9176 H   0  0
    7.8966   -2.1097    0.8946 H   0  0
    4.3052    1.5371    4.5987 H   0  0
    4.5035    1.5095    2.8152 H   0  0
    5.1888    0.1840    3.8180 H   0  0
   -2.7973    0.6469    0.7810 H   0  0
   -3.8531   -0.6622    0.1521 H   0  0
   -2.4531   -2.3402    1.3851 H   0  0
   -0.5854   -2.7206    2.9317 H   0  0
   -1.4103   -0.2914    4.5891 H   0  0
   -2.8763   -2.9527    3.9198 H   0  0
   -3.3709    0.0180    3.1479 H   0  0
   -1.6395    0.8803   -3.6068 H   0  0
   -1.4576   -0.8949   -3.3379 H   0  0
   -0.2944    0.1983   -2.5917 H   0  0
   -6.5801   -3.8697    0.9550 H   0  0
   -6.7774   -2.0828    0.6974 H   0  0
   -7.1917   -2.7814    2.2610 H   0  0
   -6.2900   -3.2175    4.3959 H   0  0
   -5.8005   -4.2206    5.7587 H   0  0
   -4.6707   -3.9786    4.3584 H   0  0
   -1.5159   -0.3269    8.3677 H   0  0
   -2.8867   -0.9312    7.4115 H   0  0
   -1.7756    0.2248    6.6526 H   0  0
  1  2  1  0
  2  3  2  0
  3  4  1  0
  4  5  2  0
  5  6  1  0
  1  6  2  0
  5  7  1  0
  7  8  1  0
  1 10  1  0
 10 11  1  0
  2 12  1  0
  8  9  2  0
 13 14  1  0
 15 14  1  0
 15 16  1  0
 16 17  1  0
 17 18  1  0
 18 19  1  0
 18 20  1  0
 20 21  1  0
 20 22  1  0
 15 22  1  0
 22 23  1  0
 17 12  1  0
 13 24  1  0
 24 25  2  0
 24 26  1  0
 23 27  1  0
 27 28  1  0
 27 29  2  0
 21 30  1  0
 30 31  1  0
 30 32  2  0
 19 33  1  0
 33 34  1  0
 33 35  2  0
  3 36  1  0
  4 37  1  0
  6 38  1  0
  7 39  1  0
  7 40  1  0
  8 41  1  0
  9 42  1  0
  9 43  1  0
 11 44  1  0
 11 45  1  0
 11 46  1  0
 14 47  1  0
 14 48  1  0
 15 49  1  0
 17 50  1  0
 18 51  1  0
 20 52  1  0
 22 53  1  0
 26 54  1  0
 26 55  1  0
 26 56  1  0
 28 57  1  0
 28 58  1  0
 28 59  1  0
 31 60  1  0
 31 61  1  0
 31 62  1  0
 34 63  1  0
 34 64  1  0
 34 65  1  0
M  END
> <Name>
DJA2020_2

> <Clean Energy>
94.1212

$$$$
DJA2020_3
  SciTegic12132405553D

 45 46  0  0  0  0            999 V2000
    3.0285   -2.3564   -2.1111 C   0  0
    3.8739   -3.4420   -1.4373 C   0  0
    3.8943   -3.4745   -0.0886 C   0  0
    3.1339   -2.5101    0.6963 C   0  0
    2.4015   -1.5724    0.1102 C   0  0
    2.3540   -1.4969   -1.3523 C   0  0
    1.6306   -0.6083    0.9977 C   0  0
    0.5535    0.1767    0.2901 C   0  0
   -0.5521    0.5145    0.9470 C   0  0
    2.8787   -2.1558   -3.5354 O   0  0
    3.5707   -3.0379   -4.4226 C   0  0
    4.6118   -4.3932   -2.2466 O   0  0
    7.7170   -4.0914    1.6090 O   0  0
    8.3517   -4.9595    0.6688 C   0  0
    7.2806   -5.7002   -0.1357 C   0  0  1  0  0  0
    6.4629   -4.7388   -0.8282 O   0  0
    5.4150   -5.3845   -1.5830 C   0  0  2  0  0  0
    6.0316   -6.3036   -2.6462 C   0  0  2  0  0  0
    4.9944   -6.9397   -3.3880 O   0  0
    6.8817   -7.3547   -1.9403 C   0  0  1  0  0  0
    7.4784   -8.2253   -2.8995 O   0  0
    7.9636   -6.6337   -1.1460 C   0  0  2  0  0  0
    8.7703   -7.5863   -0.4577 O   0  0
    4.4537   -4.1969    0.4389 H   0  0
    3.1635   -2.5599    1.7549 H   0  0
    1.7760   -0.7509   -1.8257 H   0  0
    1.2469   -1.1175    1.8932 H   0  0
    2.3704    0.1158    1.3658 H   0  0
    0.6643    0.4533   -0.7248 H   0  0
   -0.6721    0.2321    1.9622 H   0  0
   -1.3145    1.0637    0.4542 H   0  0
    3.3539   -2.7543   -5.4621 H   0  0
    3.2365   -4.0714   -4.2481 H   0  0
    4.6534   -2.9660   -4.2419 H   0  0
    7.1497   -3.4398    1.1254 H   0  0
    8.9767   -4.3684   -0.0153 H   0  0
    8.9782   -5.6876    1.2030 H   0  0
    6.6518   -6.2914    0.5445 H   0  0
    4.7864   -5.9833   -0.9084 H   0  0
    6.6617   -5.7125   -3.3254 H   0  0
    4.4306   -7.4685   -2.7712 H   0  0
    6.2506   -7.9383   -1.2559 H   0  0
    6.7687   -8.6824   -3.4143 H   0  0
    8.5914   -6.0425   -1.8274 H   0  0
    8.2002   -8.1160    0.1531 H   0  0
  1  2  1  0
  2  3  2  0
  3  4  1  0
  4  5  2  0
  5  6  1  0
  1  6  2  0
  5  7  1  0
  7  8  1  0
  1 10  1  0
 10 11  1  0
  2 12  1  0
  8  9  2  0
 13 14  1  0
 15 14  1  0
 15 16  1  0
 16 17  1  0
 17 18  1  0
 18 19  1  0
 18 20  1  0
 20 21  1  0
 20 22  1  0
 15 22  1  0
 22 23  1  0
 17 12  1  0
  3 24  1  0
  4 25  1  0
  6 26  1  0
  7 27  1  0
  7 28  1  0
  8 29  1  0
  9 30  1  0
  9 31  1  0
 11 32  1  0
 11 33  1  0
 11 34  1  0
 13 35  1  0
 14 36  1  0
 14 37  1  0
 15 38  1  0
 17 39  1  0
 18 40  1  0
 19 41  1  0
 20 42  1  0
 21 43  1  0
 22 44  1  0
 23 45  1  0
M  END
> <Name>
DJA2020_3

> <Clean Energy>
20.2128

$$$$
DJA2020_4
  SciTegic12132405553D

 68 69  0  0  0  0            999 V2000
    6.0865    1.8723   -2.6421 C   0  0
    6.4664    1.1345   -3.8560 C   0  0
    6.8413   -0.1558   -3.7577 C   0  0
    6.8663   -0.8147   -2.4622 C   0  0
    6.5261   -0.1574   -1.3625 C   0  0
    6.1203    1.2523   -1.4466 C   0  0
    6.5787   -0.8882   -0.0388 C   0  0
    5.3796   -0.5371    0.8632 C   0  0
    5.5179   -1.2995    2.1859 C   0  0
    5.7059    3.2488   -2.8295 O   0  0
    5.3422    3.9898   -1.6494 C   0  0
    6.4095    1.8746   -5.0960 O   0  0
   10.3623   -0.8033   -5.6559 O   0  0
   10.2797   -0.0688   -6.8747 C   0  0
    8.8012    0.1816   -7.1993 C   0  0  1  0  0  0
    8.2484    0.8980   -6.1120 O   0  0
    6.8584    1.1925   -6.2812 C   0  0  2  0  0  0
    6.6578    2.1166   -7.4887 C   0  0  2  0  0  0
    5.2224    2.4351   -7.5366 O   0  0
    7.1521    1.3480   -8.7830 C   0  0  1  0  0  0
    6.9657    2.2508   -9.9274 O   0  0
    8.6804    1.0005   -8.5236 C   0  0  2  0  0  0
    9.3575    0.2586   -9.6099 O   0  0
   11.6928   -1.0249   -5.3289 C   0  0
   12.5942   -0.6027   -6.0624 O   0  0
   12.0348   -1.7718   -4.0766 C   0  0
    8.9219   -1.0789   -9.8979 C   0  0
    9.6435   -1.8596  -10.9559 C   0  0
    7.9674   -1.6051   -9.3127 O   0  0
    6.8552    1.8127  -11.2904 C   0  0
    6.6846    0.3859  -11.7307 C   0  0
    6.7649    2.6867  -12.1589 O   0  0
    4.7362    3.5679   -8.2926 C   0  0
    5.6195    4.6262   -8.9436 C   0  0
    3.5139    3.7457   -8.3297 O   0  0
    4.4190   -0.9749    3.0364 O   0  0
    7.1209   -0.7191   -4.6066 H   0  0
    7.1614   -1.8311   -2.3960 H   0  0
    5.8628    1.7576   -0.5588 H   0  0
    6.6315   -1.9712   -0.2207 H   0  0
    7.4845   -0.5703    0.4944 H   0  0
    5.3718    0.5418    1.0701 H   0  0
    4.4431   -0.8234    0.3651 H   0  0
    5.5237   -2.3804    1.9856 H   0  0
    6.4589   -1.0119    2.6761 H   0  0
    5.0772    5.0183   -1.9327 H   0  0
    6.1926    4.0118   -0.9510 H   0  0
    4.4791    3.5110   -1.1636 H   0  0
   10.7934    0.8953   -6.7577 H   0  0
   10.7491   -0.6398   -7.6871 H   0  0
    8.2772   -0.7742   -7.2974 H   0  0
    6.2804    0.2682   -6.4236 H   0  0
    7.2424    3.0301   -7.3194 H   0  0
    6.5477    0.4390   -8.8950 H   0  0
    9.2112    1.9523   -8.3847 H   0  0
   12.9426   -1.3469   -3.6241 H   0  0
   12.2629   -2.8116   -4.3512 H   0  0
   11.1832   -1.7668   -3.3802 H   0  0
    9.2400   -2.8790  -11.0348 H   0  0
   10.7172   -1.8733  -10.7188 H   0  0
    9.5426   -1.3276  -11.9132 H   0  0
    7.6452    0.0398  -12.1322 H   0  0
    5.9611    0.3415  -12.5565 H   0  0
    6.3879   -0.2634  -10.8974 H   0  0
    5.0716    5.5755   -9.0254 H   0  0
    5.8648    4.2883   -9.9588 H   0  0
    6.5622    4.7449   -8.3927 H   0  0
    4.4188   -0.0008    3.2130 H   0  0
  1  2  1  0
  2  3  2  0
  3  4  1  0
  4  5  2  0
  5  6  1  0
  1  6  2  0
  5  7  1  0
  7  8  1  0
  1 10  1  0
 10 11  1  0
  2 12  1  0
 13 14  1  0
 15 14  1  0
 15 16  1  0
 16 17  1  0
 17 18  1  0
 18 19  1  0
 18 20  1  0
 20 21  1  0
 20 22  1  0
 15 22  1  0
 22 23  1  0
 17 12  1  0
 13 24  1  0
 24 25  2  0
 24 26  1  0
 23 27  1  0
 27 28  1  0
 27 29  2  0
 21 30  1  0
 30 31  1  0
 30 32  2  0
 19 33  1  0
 33 34  1  0
 33 35  2  0
  8  9  1  0
  9 36  1  0
  3 37  1  0
  4 38  1  0
  6 39  1  0
  7 40  1  0
  7 41  1  0
  8 42  1  0
  8 43  1  0
  9 44  1  0
  9 45  1  0
 11 46  1  0
 11 47  1  0
 11 48  1  0
 14 49  1  0
 14 50  1  0
 15 51  1  0
 17 52  1  0
 18 53  1  0
 20 54  1  0
 22 55  1  0
 26 56  1  0
 26 57  1  0
 26 58  1  0
 28 59  1  0
 28 60  1  0
 28 61  1  0
 31 62  1  0
 31 63  1  0
 31 64  1  0
 34 65  1  0
 34 66  1  0
 34 67  1  0
 36 68  1  0
M  END
> <Name>
DJA2020_4

> <Clean Energy>
79.2945

$$$$
DJA2020_5
  SciTegic12132405553D

 48 49  0  0  0  0            999 V2000
    3.6745    0.3636   -1.3132 C   0  0
    4.2705    1.6327   -1.9346 C   0  0
    3.4210    2.6348   -2.2479 C   0  0
    1.9940    2.5167   -1.9931 C   0  0
    1.4830    1.4208   -1.4496 C   0  0
    2.3617    0.3016   -1.1026 C   0  0
   -0.0119    1.3667   -1.2184 C   0  0
   -0.3796    0.6205    0.0779 C   0  0
   -1.9058    0.6002    0.2175 C   0  0
    4.4087   -0.8224   -0.9339 O   0  0
    5.8207   -0.8455   -1.1566 C   0  0
    5.7049    1.7329   -2.1622 O   0  0
    4.0696    3.9176   -6.2463 O   0  0
    5.4943    3.9492   -6.3448 C   0  0
    6.0947    4.0303   -4.9390 C   0  0  1  0  0  0
    5.6725    2.8842   -4.1907 O   0  0
    6.1925    2.8987   -2.8460 C   0  0  2  0  0  0
    7.7264    2.8752   -2.8788 C   0  0  2  0  0  0
    8.2337    2.8914   -1.5469 O   0  0
    8.2059    4.1150   -3.6343 C   0  0  1  0  0  0
    9.6305    4.1326   -3.6929 O   0  0
    7.6264    4.0571   -5.0443 C   0  0  2  0  0  0
    8.0384    5.2022   -5.7862 O   0  0
   -2.2624   -0.0979    1.4096 O   0  0
    3.7612    3.5373   -2.6751 H   0  0
    1.3506    3.3208   -2.2441 H   0  0
    1.9545   -0.5809   -0.6826 H   0  0
   -0.4156    2.3891   -1.2144 H   0  0
   -0.4666    0.8145   -2.0516 H   0  0
   -0.0092   -0.4125    0.0318 H   0  0
    0.0658    1.1337    0.9415 H   0  0
   -2.2819    1.6321    0.2665 H   0  0
   -2.3446    0.0904   -0.6519 H   0  0
    6.2271   -1.8111   -0.8244 H   0  0
    6.2969   -0.0330   -0.5895 H   0  0
    6.0245   -0.7134   -2.2304 H   0  0
    3.7931    3.1266   -5.7172 H   0  0
    5.8488    3.0323   -6.8379 H   0  0
    5.8062    4.8251   -6.9295 H   0  0
    5.7441    4.9423   -4.4367 H   0  0
    5.8639    3.8090   -2.3242 H   0  0
    8.0741    1.9704   -3.3959 H   0  0
    7.9173    3.7091   -1.0881 H   0  0
    7.8480    5.0205   -3.1244 H   0  0
    9.9962    4.1631   -2.7747 H   0  0
    7.9774    3.1455   -5.5480 H   0  0
    7.7196    6.0194   -5.3291 H   0  0
   -1.9207   -1.0256    1.3598 H   0  0
  1  2  1  0
  2  3  2  0
  3  4  1  0
  4  5  2  0
  5  6  1  0
  1  6  2  0
  5  7  1  0
  7  8  1  0
  1 10  1  0
 10 11  1  0
  2 12  1  0
 13 14  1  0
 15 14  1  0
 15 16  1  0
 16 17  1  0
 17 18  1  0
 18 19  1  0
 18 20  1  0
 20 21  1  0
 20 22  1  0
 15 22  1  0
 22 23  1  0
 17 12  1  0
  8  9  1  0
  9 24  1  0
  3 25  1  0
  4 26  1  0
  6 27  1  0
  7 28  1  0
  7 29  1  0
  8 30  1  0
  8 31  1  0
  9 32  1  0
  9 33  1  0
 11 34  1  0
 11 35  1  0
 11 36  1  0
 13 37  1  0
 14 38  1  0
 14 39  1  0
 15 40  1  0
 17 41  1  0
 18 42  1  0
 19 43  1  0
 20 44  1  0
 21 45  1  0
 22 46  1  0
 23 47  1  0
 24 48  1  0
M  END
> <Name>
DJA2020_5

> <Clean Energy>
9.50619

$$$$
DJA2020_6
  SciTegic12132405553D

 60 61  0  0  0  0            999 V2000
   -2.3797   -1.2821    2.9215 C   0  0
   -2.1343   -0.0937    2.0949 C   0  0
   -1.9504    1.1004    2.6862 C   0  0
   -1.9481    1.2032    4.1378 C   0  0
   -2.1497    0.1231    4.8855 C   0  0
   -2.3895   -1.1689    4.2617 C   0  0
   -2.1340    0.2370    6.3379 C   0  0
   -2.6468   -2.5016    2.2068 O   0  0
   -3.0013   -3.6502    2.9971 C   0  0
   -2.1201   -0.3058    0.6744 O   0  0
   -5.5131    2.9875    0.9335 O   0  0
   -5.3445    2.7702   -0.4646 C   0  0
   -3.8686    2.4581   -0.7451 C   0  0  1  0  0  0
   -3.5483    1.3183    0.0116 O   0  0
   -2.2115    0.8594   -0.1554 C   0  0  2  0  0  0
   -1.9519    0.4586   -1.6083 C   0  0  2  0  0  0
   -0.5720   -0.0622   -1.6350 O   0  0
   -2.1557    1.7409   -2.5237 C   0  0  1  0  0  0
   -1.9103    1.3268   -3.9107 O   0  0
   -3.6652    2.1879   -2.2720 C   0  0  2  0  0  0
   -4.1329    3.3670   -3.0291 O   0  0
   -6.8516    3.2311    1.2100 C   0  0
   -7.6859    3.2341    0.2976 O   0  0
   -7.2863    3.4773    2.6217 C   0  0
   -3.5635    4.6467   -2.7464 C   0  0
   -4.1062    5.8415   -3.4722 C   0  0
   -2.6461    4.7998   -1.9309 O   0  0
   -1.5968    2.2341   -4.9793 C   0  0
   -1.2630    3.6899   -4.8122 C   0  0
   -1.4736    1.7527   -6.1105 O   0  0
   -0.0857   -0.8668   -2.7275 C   0  0
   -0.9486   -1.4211   -3.8465 C   0  0
    1.0998   -1.2148   -2.6955 O   0  0
   -2.3262   -0.7652    7.0369 O   0  0
   -1.7728    1.9777    2.1227 H   0  0
   -1.7753    2.1398    4.6026 H   0  0
   -2.5742   -1.9978    4.8908 H   0  0
   -1.9511    1.1760    6.7951 H   0  0
   -3.1924   -4.5040    2.3315 H   0  0
   -3.9165   -3.4277    3.5717 H   0  0
   -2.1849   -3.8973    3.6868 H   0  0
   -5.9573    1.9129   -0.7765 H   0  0
   -5.6524    3.6644   -1.0219 H   0  0
   -3.2396    3.2942   -0.4222 H   0  0
   -1.4839    1.6287    0.1367 H   0  0
   -2.6664   -0.3279   -1.8834 H   0  0
   -1.4455    2.5192   -2.2146 H   0  0
   -4.3027    1.3405   -2.5597 H   0  0
   -8.3070    3.0971    2.7741 H   0  0
   -7.3074    4.5638    2.7861 H   0  0
   -6.5675    3.0335    3.3265 H   0  0
   -3.5663    6.7544   -3.1878 H   0  0
   -5.1786    5.9336   -3.2421 H   0  0
   -4.0365    5.6600   -4.5550 H   0  0
   -2.1365    4.2740   -5.1301 H   0  0
   -0.4400    3.9575   -5.4889 H   0  0
   -1.0260    3.9354   -3.7695 H   0  0
   -0.4631   -2.2976   -4.2986 H   0  0
   -1.0519   -0.6483   -4.6166 H   0  0
   -1.9551   -1.6567   -3.4759 H   0  0
  1  2  1  0
  2  3  2  0
  3  4  1  0
  4  5  2  0
  5  6  1  0
  1  6  2  0
  5  7  1  0
  1  8  1  0
  8  9  1  0
  2 10  1  0
 11 12  1  0
 13 12  1  0
 13 14  1  0
 14 15  1  0
 15 16  1  0
 16 17  1  0
 16 18  1  0
 18 19  1  0
 18 20  1  0
 13 20  1  0
 20 21  1  0
 15 10  1  0
 11 22  1  0
 22 23  2  0
 22 24  1  0
 21 25  1  0
 25 26  1  0
 25 27  2  0
 19 28  1  0
 28 29  1  0
 28 30  2  0
 17 31  1  0
 31 32  1  0
 31 33  2  0
  7 34  2  0
  3 35  1  0
  4 36  1  0
  6 37  1  0
  7 38  1  0
  9 39  1  0
  9 40  1  0
  9 41  1  0
 12 42  1  0
 12 43  1  0
 13 44  1  0
 15 45  1  0
 16 46  1  0
 18 47  1  0
 20 48  1  0
 24 49  1  0
 24 50  1  0
 24 51  1  0
 26 52  1  0
 26 53  1  0
 26 54  1  0
 29 55  1  0
 29 56  1  0
 29 57  1  0
 32 58  1  0
 32 59  1  0
 32 60  1  0
M  END
> <Name>
DJA2020_6

> <Clean Energy>
73.2905

$$$$
DJA2020_7
  SciTegic12132405553D

 61 62  0  0  0  0            999 V2000
   -7.5526   11.1867   -1.5540 C   0  0
   -8.3237   12.1654   -0.6665 C   0  0
   -8.5159   11.8259    0.6233 C   0  0
   -8.0238   10.5550    1.1442 C   0  0
   -7.3684    9.7019    0.3611 C   0  0
   -7.1248   10.0406   -1.0299 C   0  0
   -6.8664    8.3940    0.8627 C   0  0
   -7.2176   11.3849   -2.9493 O   0  0
   -7.6166   12.6081   -3.5809 C   0  0
   -8.8293   13.3976   -1.2279 O   0  0
  -11.9362   12.7176    2.4610 O   0  0
  -12.5077   13.8006    1.7293 C   0  0
  -11.3681   14.5983    1.0835 C   0  0  1  0  0  0
  -10.6558   13.7131    0.2259 O   0  0
   -9.5263   14.3409   -0.3895 C   0  0  2  0  0  0
   -9.9993   15.4674   -1.3131 C   0  0  2  0  0  0
   -8.7998   16.0004   -1.9728 O   0  0
  -10.7400   16.5554   -0.4462 C   0  0  1  0  0  0
  -11.1976   17.6064   -1.3673 O   0  0
  -11.9403   15.8052    0.2736 C   0  0  2  0  0  0
  -12.7596   16.6495    1.1710 O   0  0
  -12.9339   11.9773    3.0773 C   0  0
  -14.1208   12.2969    2.9449 O   0  0
  -12.5653   10.7906    3.9144 C   0  0
  -12.1422   17.1893    2.3506 C   0  0
  -12.9780   18.0013    3.2951 C   0  0
  -10.9441   17.0200    2.6077 O   0  0
  -11.4933   18.9541   -0.9756 C   0  0
  -11.1686   19.5578    0.3602 C   0  0
  -11.9312   19.7123   -1.8474 O   0  0
   -8.9109   16.7521   -3.2025 C   0  0
  -10.1919   16.9017   -4.0181 C   0  0
   -7.8720   17.2175   -3.6828 O   0  0
   -6.2560    7.6578    0.0799 O   0  0
   -7.0619    7.9533    2.1884 O   0  0
   -9.0393   12.4569    1.2858 H   0  0
   -8.2011   10.3110    2.1563 H   0  0
   -6.5896    9.3607   -1.6425 H   0  0
   -7.2827   12.6050   -4.6280 H   0  0
   -7.1583   13.4598   -3.0541 H   0  0
   -8.7115   12.7018   -3.5460 H   0  0
  -13.1773   13.4134    0.9494 H   0  0
  -13.0729   14.4501    2.4116 H   0  0
  -10.6933   14.9590    1.8663 H   0  0
   -8.8439   14.7298    0.3792 H   0  0
  -10.6719   15.0229   -2.0570 H   0  0
  -10.0239   16.9525    0.2842 H   0  0
  -12.5997   15.4057   -0.5089 H   0  0
  -13.4532   10.1854    4.1467 H   0  0
  -12.1138   11.1565    4.8485 H   0  0
  -11.7919   10.2032    3.3979 H   0  0
  -12.3764   18.3592    4.1426 H   0  0
  -13.8191   17.3845    3.6427 H   0  0
  -13.4180   18.8439    2.7415 H   0  0
  -12.0994   19.6198    0.9374 H   0  0
  -10.8123   20.5877    0.2196 H   0  0
  -10.4420   18.9498    0.9135 H   0  0
   -9.9490   17.1249   -5.0664 H   0  0
  -10.7634   17.7442   -3.6102 H   0  0
  -10.8174   16.0025   -3.9279 H   0  0
   -7.5592    8.6052    2.7215 H   0  0
  1  2  1  0
  2  3  2  0
  3  4  1  0
  4  5  2  0
  5  6  1  0
  1  6  2  0
  5  7  1  0
  1  8  1  0
  8  9  1  0
  2 10  1  0
 11 12  1  0
 13 12  1  0
 13 14  1  0
 14 15  1  0
 15 16  1  0
 16 17  1  0
 16 18  1  0
 18 19  1  0
 18 20  1  0
 13 20  1  0
 20 21  1  0
 15 10  1  0
 11 22  1  0
 22 23  2  0
 22 24  1  0
 21 25  1  0
 25 26  1  0
 25 27  2  0
 19 28  1  0
 28 29  1  0
 28 30  2  0
 17 31  1  0
 31 32  1  0
 31 33  2  0
  7 34  2  0
  7 35  1  0
  3 36  1  0
  4 37  1  0
  6 38  1  0
  9 39  1  0
  9 40  1  0
  9 41  1  0
 12 42  1  0
 12 43  1  0
 13 44  1  0
 15 45  1  0
 16 46  1  0
 18 47  1  0
 20 48  1  0
 24 49  1  0
 24 50  1  0
 24 51  1  0
 26 52  1  0
 26 53  1  0
 26 54  1  0
 29 55  1  0
 29 56  1  0
 29 57  1  0
 32 58  1  0
 32 59  1  0
 32 60  1  0
 35 61  1  0
M  END
> <Name>
DJA2020_7

> <Clean Energy>
71.4956

$$$$
DJA2020_8
  SciTegic12132405553D

 41 42  0  0  0  0            999 V2000
   -1.2353   -0.7676   -0.1888 C   0  0
   -2.1066   -0.5293   -1.4254 C   0  0
   -1.4926   -0.1107   -2.5516 C   0  0
   -0.0520    0.1093   -2.5829 C   0  0
    0.6967   -0.0982   -1.5033 C   0  0
    0.0757   -0.5519   -0.2718 C   0  0
    2.1686    0.1198   -1.5102 C   0  0
   -1.6985   -1.2181    1.1052 O   0  0
   -3.0954   -1.4741    1.2751 C   0  0
   -3.5394   -0.7561   -1.3613 O   0  0
   -3.4287    2.8893   -4.7182 O   0  0
   -4.8137    2.6278   -4.4839 C   0  0
   -4.9899    1.1548   -4.1084 C   0  0  1  0  0  0
   -4.2286    0.8787   -2.9182 O   0  0
   -4.3289   -0.5108   -2.5398 C   0  0  2  0  0  0
   -5.7925   -0.8578   -2.2291 C   0  0  2  0  0  0
   -5.8916   -2.2298   -1.8573 O   0  0
   -6.6252   -0.6002   -3.4810 C   0  0  1  0  0  0
   -7.9958   -0.9032   -3.2276 O   0  0
   -6.4772    0.8692   -3.8571 C   0  0  2  0  0  0
   -7.2299    1.1412   -5.0368 O   0  0
    2.8008   -0.0941   -0.4699 O   0  0
    2.8754    0.5598   -2.6496 O   0  0
   -2.0309    0.0708   -3.4400 H   0  0
    0.3978    0.4389   -3.4795 H   0  0
    0.6810   -0.7161    0.5829 H   0  0
   -3.2831   -1.8065    2.3058 H   0  0
   -3.4131   -2.2599    0.5737 H   0  0
   -3.6644   -0.5535    1.0783 H   0  0
   -2.9111    2.6859   -3.8990 H   0  0
   -5.1744    3.2593   -3.6602 H   0  0
   -5.3897    2.8458   -5.3943 H   0  0
   -4.6272    0.5207   -4.9294 H   0  0
   -3.9719   -1.1448   -3.3640 H   0  0
   -6.1547   -0.2257   -1.4063 H   0  0
   -5.5635   -2.7930   -2.6007 H   0  0
   -6.2551   -1.2282   -4.3030 H   0  0
   -8.0809   -1.8559   -2.9778 H   0  0
   -6.8395    1.5014   -3.0344 H   0  0
   -6.9002    0.5691   -5.7735 H   0  0
    2.2844    0.6995   -3.4164 H   0  0
  1  2  1  0
  2  3  2  0
  3  4  1  0
  4  5  2  0
  5  6  1  0
  1  6  2  0
  5  7  1  0
  1  8  1  0
  8  9  1  0
  2 10  1  0
 11 12  1  0
 13 12  1  0
 13 14  1  0
 14 15  1  0
 15 16  1  0
 16 17  1  0
 16 18  1  0
 18 19  1  0
 18 20  1  0
 13 20  1  0
 20 21  1  0
 15 10  1  0
  7 22  2  0
  7 23  1  0
  3 24  1  0
  4 25  1  0
  6 26  1  0
  9 27  1  0
  9 28  1  0
  9 29  1  0
 11 30  1  0
 12 31  1  0
 12 32  1  0
 13 33  1  0
 15 34  1  0
 16 35  1  0
 17 36  1  0
 18 37  1  0
 19 38  1  0
 20 39  1  0
 21 40  1  0
 23 41  1  0
M  END
> <Name>
DJA2020_8

> <Clean Energy>
-1.17811

$$$$
DJA2020_9
  SciTegic12132405553D

 40 41  0  0  0  0            999 V2000
   -5.4748   -0.4572   -0.9789 C   0  0
   -4.1143   -0.1950   -1.6399 C   0  0
   -3.5275   -1.2196   -2.2951 C   0  0
   -4.1693   -2.5261   -2.3656 C   0  0
   -5.3439   -2.7372   -1.7896 C   0  0
   -6.0149   -1.6703   -1.0759 C   0  0
   -5.9648   -4.0537   -1.8758 C   0  0
   -6.2598    0.5036   -0.2362 O   0  0
   -5.7445    1.8293   -0.0868 C   0  0
   -3.5047    1.1199   -1.5527 O   0  0
    0.5914   -1.6689   -1.6554 O   0  0
    1.0469   -0.3255   -1.4859 C   0  0
    0.0572    0.6294   -2.1574 C   0  0  1  0  0  0
   -1.2376    0.4682   -1.5498 O   0  0
   -2.2210    1.3240   -2.1704 C   0  0  2  0  0  0
   -1.8171    2.7942   -1.9882 C   0  0  2  0  0  0
   -2.7877    3.6374   -2.6026 O   0  0
   -0.4575    3.0054   -2.6472 C   0  0  1  0  0  0
   -0.0437    4.3614   -2.4912 O   0  0
    0.5452    2.0740   -1.9771 C   0  0  2  0  0  0
    1.8266    2.2322   -2.5815 O   0  0
   -7.0604   -4.2561   -1.3408 O   0  0
   -2.5943   -1.1093   -2.7740 H   0  0
   -3.6913   -3.3177   -2.8845 H   0  0
   -6.9542   -1.8587   -0.6217 H   0  0
   -5.4756   -4.8367   -2.3983 H   0  0
   -6.4528    2.4327    0.4982 H   0  0
   -5.6079    2.2848   -1.0787 H   0  0
   -4.7775    1.7909    0.4365 H   0  0
   -0.3039   -1.7682   -1.2443 H   0  0
    1.1102   -0.0898   -0.4144 H   0  0
    2.0380   -0.2106   -1.9470 H   0  0
   -0.0106    0.3951   -3.2289 H   0  0
   -2.2850    1.0964   -3.2441 H   0  0
   -1.7502    3.0287   -0.9166 H   0  0
   -2.8438    3.4208   -3.5658 H   0  0
   -0.5265    2.7622   -3.7164 H   0  0
   -0.7036    4.9578   -2.9228 H   0  0
    0.6112    2.3092   -0.9056 H   0  0
    1.7611    2.0200   -3.5456 H   0  0
  1  2  1  0
  2  3  2  0
  3  4  1  0
  4  5  2  0
  5  6  1  0
  1  6  2  0
  5  7  1  0
  1  8  1  0
  8  9  1  0
  2 10  1  0
 11 12  1  0
 13 12  1  0
 13 14  1  0
 14 15  1  0
 15 16  1  0
 16 17  1  0
 16 18  1  0
 18 19  1  0
 18 20  1  0
 13 20  1  0
 20 21  1  0
 15 10  1  0
  7 22  2  0
  3 23  1  0
  4 24  1  0
  6 25  1  0
  7 26  1  0
  9 27  1  0
  9 28  1  0
  9 29  1  0
 11 30  1  0
 12 31  1  0
 12 32  1  0
 13 33  1  0
 15 34  1  0
 16 35  1  0
 17 36  1  0
 18 37  1  0
 19 38  1  0
 20 39  1  0
 21 40  1  0
M  END
> <Name>
DJA2020_9

> <Clean Energy>
-2.27806

$$$$
DJA2020_10
  SciTegic12132405553D

 42 43  0  0  0  0            999 V2000
   -5.3067   -0.9063   -3.6618 C   0  0
   -3.9363   -0.5456   -3.0718 C   0  0
   -3.3163   -1.4749   -2.3133 C   0  0
   -3.9354   -2.7698   -2.0649 C   0  0
   -5.1201   -3.0655   -2.5804 C   0  0
   -5.8240   -2.1054   -3.4027 C   0  0
   -5.7364   -4.4014   -2.3112 C   0  0
   -6.1245   -0.0555   -4.4976 O   0  0
   -5.6354    1.2489   -4.8214 C   0  0
   -3.3493    0.7554   -3.3383 O   0  0
   -1.4514   -0.1091    1.1581 O   0  0
   -1.0227    1.2086    0.8100 C   0  0
   -0.8802    1.3048   -0.7105 C   0  0  1  0  0  0
   -2.1535    1.0242   -1.3206 O   0  0
   -2.0668    1.0630   -2.7610 C   0  0  2  0  0  0
   -1.6497    2.4694   -3.2161 C   0  0  2  0  0  0
   -1.5624    2.5075   -4.6379 O   0  0
   -0.2887    2.7896   -2.6060 C   0  0  1  0  0  0
    0.1288    4.0955   -2.9996 O   0  0
   -0.4182    2.7190   -1.0892 C   0  0  2  0  0  0
    0.8435    2.9954   -0.4861 O   0  0
   -4.7338   -5.4162   -2.3877 O   0  0
   -2.3725   -1.2952   -1.8787 H   0  0
   -3.4323   -3.4842   -1.4644 H   0  0
   -6.7700   -2.3621   -3.8065 H   0  0
   -6.1183   -4.4033   -1.2807 H   0  0
   -6.5653   -4.5900   -3.0083 H   0  0
   -6.3671    1.7657   -5.4583 H   0  0
   -4.6800    1.1602   -5.3596 H   0  0
   -5.4843    1.8249   -3.8964 H   0  0
   -2.3216   -0.2984    0.7251 H   0  0
   -1.7660    1.9414    1.1533 H   0  0
   -0.0531    1.4185    1.2833 H   0  0
   -0.1394    0.5707   -1.0570 H   0  0
   -1.3205    0.3330   -3.1058 H   0  0
   -2.3921    3.2035   -2.8726 H   0  0
   -0.8942    1.8447   -4.9407 H   0  0
    0.4484    2.0493   -2.9459 H   0  0
    0.2032    4.1336   -3.9847 H   0  0
   -1.1603    3.4530   -0.7452 H   0  0
    1.5074    2.3323   -0.7998 H   0  0
   -4.3483   -5.4304   -3.2989 H   0  0
  1  2  1  0
  2  3  2  0
  3  4  1  0
  4  5  2  0
  5  6  1  0
  1  6  2  0
  5  7  1  0
  1  8  1  0
  8  9  1  0
  2 10  1  0
 11 12  1  0
 13 12  1  0
 13 14  1  0
 14 15  1  0
 15 16  1  0
 16 17  1  0
 16 18  1  0
 18 19  1  0
 18 20  1  0
 13 20  1  0
 20 21  1  0
 15 10  1  0
  7 22  1  0
  3 23  1  0
  4 24  1  0
  6 25  1  0
  7 26  1  0
  7 27  1  0
  9 28  1  0
  9 29  1  0
  9 30  1  0
 11 31  1  0
 12 32  1  0
 12 33  1  0
 13 34  1  0
 15 35  1  0
 16 36  1  0
 17 37  1  0
 18 38  1  0
 19 39  1  0
 20 40  1  0
 21 41  1  0
 22 42  1  0
M  END
> <Name>
DJA2020_10

> <Clean Energy>
9.80754

$$$$
AMF2021_IIIc
  SciTegic12132405553D

 21 21  0  0  0  0            999 V2000
   -2.0101   -0.7766   -0.3099 C   0  0
   -3.4544   -0.7760   -0.5446 C   0  0
   -4.1275    0.3657   -0.6046 C   0  0
   -3.4302    1.6243   -0.4393 C   0  0
   -2.1171    1.6454   -0.2239 C   0  0
   -1.3337    0.3721   -0.1473 C   0  0
    0.1956    0.2701    0.0955 C   0  0
    0.6794   -0.8658    0.0538 O   0  0
    1.1056    1.2544    0.3524 N   0  0
    0.8823    2.5669    0.4731 O   0  0
    2.4639    0.8318    0.5209 C   0  0
   -1.3577   -2.0017   -0.2561 O   0  0
   -3.9673   -1.6960   -0.6672 H   0  0
   -5.1742    0.3567   -0.7751 H   0  0
   -3.9694    2.5359   -0.4925 H   0  0
   -1.6553    2.5651   -0.1172 H   0  0
   -0.0073    2.7953    0.3754 H   0  0
    3.1052    1.6932    0.7561 H   0  0
    2.8038    0.3446   -0.4044 H   0  0
    2.5111    0.0855    1.3271 H   0  0
   -2.0130   -2.7290   -0.3950 H   0  0
  1  2  1  0
  2  3  2  0
  3  4  1  0
  4  5  2  0
  5  6  1  0
  1  6  2  0
  6  7  1  0
  7  9  1  0
  9 10  1  0
  9 11  1  0
  7  8  2  0
  1 12  1  0
  2 13  1  0
  3 14  1  0
  4 15  1  0
  5 16  1  0
 10 17  1  0
 11 18  1  0
 11 19  1  0
 11 20  1  0
 12 21  1  0
M  END
> <Name>
AMF2021_IIIc

> <Clean Energy>
15.2102003097534

$$$$
AMF2021_IIId
  SciTegic12132405553D

 39 40  0  0  0  0            999 V2000
    1.6308   -2.8538   -4.7767 C   0  0
    2.4440   -1.6231   -4.8638 C   0  0
    2.7736   -0.9749   -3.7366 C   0  0
    2.3397   -1.4837   -2.4596 C   0  0
    1.6067   -2.5864   -2.3708 C   0  0
    1.2053   -3.3360   -3.5954 C   0  0
    0.3553   -4.6498   -3.6196 C   0  0
    0.3323   -5.2027   -4.7169 O   0  0
   -0.3559   -5.2516   -2.5806 N   0  0
   -0.4724   -4.7467   -1.3479 O   0  0
   -1.0920   -6.5158   -2.7305 C   0  0
    1.3008   -3.5082   -5.9641 O   0  0
   -1.8165   -7.0011   -1.5366 C   0  0
   -2.5112   -8.1356   -1.5733 C   0  0
   -2.5682   -8.9188   -2.7949 C   0  0
   -1.9239   -8.5017   -3.8791 C   0  0
   -1.1553   -7.2551   -3.8516 C   0  0
    2.8355   -1.1909   -6.1832 O   0  0
    3.6265    0.0098   -6.2683 C   0  0
    2.7300   -0.7510   -1.2229 C   0  0
    1.8289    0.4341   -1.0878 C   0  0
    2.2404    1.5056   -0.4164 C   0  0
    3.3524   -0.0918   -3.7467 H   0  0
    1.3337   -2.9177   -1.4249 H   0  0
   -0.0677   -3.9310   -1.2458 H   0  0
    1.6837   -3.0282   -6.7343 H   0  0
   -1.7857   -6.4425   -0.6372 H   0  0
   -3.0250   -8.4689   -0.7076 H   0  0
   -3.1230   -9.8224   -2.8216 H   0  0
   -1.9664   -9.0749   -4.7703 H   0  0
   -0.6606   -6.9595   -4.7232 H   0  0
    3.8525    0.2227   -7.3226 H   0  0
    4.5673   -0.1274   -5.7143 H   0  0
    3.0654    0.8531   -5.8382 H   0  0
    2.5902   -1.3941   -0.3426 H   0  0
    3.7614   -0.3754   -1.2764 H   0  0
    0.8725    0.4283   -1.5469 H   0  0
    3.2047    1.5150    0.0257 H   0  0
    1.6063    2.3514   -0.3267 H   0  0
  1  2  1  0
  2  3  2  0
  3  4  1  0
  4  5  2  0
  5  6  1  0
  1  6  2  0
  6  7  1  0
  7  9  1  0
  9 10  1  0
  9 11  1  0
  7  8  2  0
  1 12  1  0
 13 14  2  0
 14 15  1  0
 15 16  2  0
 16 17  1  0
 11 13  1  0
 11 17  2  0
  2 18  1  0
 18 19  1  0
  4 20  1  0
 20 21  1  0
 21 22  2  0
  3 23  1  0
  5 24  1  0
 10 25  1  0
 12 26  1  0
 13 27  1  0
 14 28  1  0
 15 29  1  0
 16 30  1  0
 17 31  1  0
 19 32  1  0
 19 33  1  0
 19 34  1  0
 20 35  1  0
 20 36  1  0
 21 37  1  0
 22 38  1  0
 22 39  1  0
M  END
> <Name>
AMF2021_IIId

> <Clean Energy>
34.8067

$$$$
AMF2021_IIIe
  SciTegic12132405553D

 32 33  0  0  0  0            999 V2000
   -0.3414   -2.2501   -0.8587 C   0  0
    0.5417   -3.5206   -0.5985 C   0  0
    1.6657   -3.3683    0.0934 C   0  0
    2.0723   -2.0870    0.6033 C   0  0
    1.3417   -1.0033    0.3896 C   0  0
    0.0770   -1.0573   -0.3857 C   0  0
   -0.8231    0.1955   -0.6433 C   0  0
   -1.9806   -0.0653   -0.9662 O   0  0
   -0.4674    1.5408   -0.5446 N   0  0
    0.7749    1.9827   -0.2864 O   0  0
   -1.4121    2.6447   -0.7539 C   0  0
   -1.5674   -2.2284   -1.5792 O   0  0
   -0.8549    4.0115   -0.6765 C   0  0
   -1.6327    5.0771   -0.8501 C   0  0
   -3.0502    4.9112   -1.1193 C   0  0
   -3.5719    3.6916   -1.1915 C   0  0
   -2.7265    2.5105   -1.0018 C   0  0
    0.3227   -4.9019   -1.0111 O   0  0
   -0.8200   -5.2741   -1.7605 C   0  0
    2.2754   -4.2157    0.2796 H   0  0
    2.9672   -2.0098    1.1668 H   0  0
    1.6691   -0.0989    0.8004 H   0  0
    1.4091    1.3103   -0.2330 H   0  0
   -1.8458   -3.0580   -1.9064 H   0  0
    0.1769    4.1506   -0.4810 H   0  0
   -1.2162    6.0506   -0.7916 H   0  0
   -3.6679    5.7622   -1.2574 H   0  0
   -4.6073    3.5724   -1.3875 H   0  0
   -3.1718    1.5666   -1.0622 H   0  0
   -0.7891   -6.3539   -1.9641 H   0  0
   -0.8296   -4.7214   -2.7111 H   0  0
   -1.7271   -5.0345   -1.1870 H   0  0
  1  2  1  0
  2  3  2  0
  3  4  1  0
  4  5  2  0
  5  6  1  0
  1  6  2  0
  6  7  1  0
  7  9  1  0
  9 10  1  0
  9 11  1  0
  7  8  2  0
  1 12  1  0
 13 14  2  0
 14 15  1  0
 15 16  2  0
 16 17  1  0
 11 13  1  0
 11 17  2  0
  2 18  1  0
 18 19  1  0
  3 20  1  0
  4 21  1  0
  5 22  1  0
 10 23  1  0
 12 24  1  0
 13 25  1  0
 14 26  1  0
 15 27  1  0
 16 28  1  0
 17 29  1  0
 19 30  1  0
 19 31  1  0
 19 32  1  0
M  END
> <Name>
AMF2021_IIIe

> <Clean Energy>
24.2619

$$$$
AMF2021_IIIf
  SciTegic12132405553D

 28 29  0  0  0  0            999 V2000
   -2.2250   -0.8091   -0.1983 C   0  0
   -3.6415   -0.7680   -0.5651 C   0  0
   -4.2295    0.3833   -0.8630 C   0  0
   -3.4655    1.6123   -0.8334 C   0  0
   -2.1774    1.5982   -0.5002 C   0  0
   -1.4887    0.3142   -0.1451 C   0  0
    0.0150    0.1700    0.2495 C   0  0
    0.4102   -0.9941    0.2708 O   0  0
    0.9323    1.1712    0.5690 N   0  0
    0.6372    2.4734    0.6467 O   0  0
    2.3407    0.9061    0.8887 C   0  0
   -1.6678   -2.0458    0.1036 O   0  0
    3.1675    2.0796    1.2417 C   0  0
    4.4555    1.9413    1.5456 C   0  0
    5.0719    0.6264    1.5345 C   0  0
    4.3476   -0.4416    1.2193 C   0  0
    2.9287   -0.3029    0.8823 C   0  0
   -4.2033   -1.6670   -0.5916 H   0  0
   -5.2563    0.4024   -1.1275 H   0  0
   -3.9339    2.5296   -1.0857 H   0  0
   -1.6582    2.4996   -0.5078 H   0  0
   -0.2506    2.6578    0.5090 H   0  0
   -2.3583   -2.7477    0.0137 H   0  0
    2.7339    3.0460    1.2546 H   0  0
    5.0338    2.7941    1.7966 H   0  0
    6.0987    0.5190    1.7773 H   0  0
    4.7994   -1.4009    1.2114 H   0  0
    2.3906   -1.1647    0.6374 H   0  0
  1  2  1  0
  2  3  2  0
  3  4  1  0
  4  5  2  0
  5  6  1  0
  1  6  2  0
  6  7  1  0
  7  9  1  0
  9 10  1  0
  9 11  1  0
  7  8  2  0
  1 12  1  0
 13 14  2  0
 14 15  1  0
 15 16  2  0
 16 17  1  0
 11 13  1  0
 11 17  2  0
  2 18  1  0
  3 19  1  0
  4 20  1  0
  5 21  1  0
 10 22  1  0
 12 23  1  0
 13 24  1  0
 14 25  1  0
 15 26  1  0
 16 27  1  0
 17 28  1  0
M  END
> <Name>
AMF2021_IIIf

> <Clean Energy>
12.1662

$$$$
AMF2021_IVa
  SciTegic12132405553D

 29 30  0  0  0  0            999 V2000
    3.8467   -1.9427    3.6509 C   0  0
    3.7061   -1.4356    2.2325 C   0  0
    2.4960   -1.4067    1.6554 C   0  0
    1.3114   -1.8661    2.3985 C   0  0
    1.4983   -2.2979    3.6345 C   0  0
    2.7325   -2.3381    4.2518 C   0  0
    2.5766   -2.8354    5.5228 O   0  0
    0.5707   -2.7899    4.5730 C   0  0
    1.2603   -3.0957    5.6788 N   0  0
    0.6770   -3.6284    6.8695 C   0  0
   -0.6473   -2.9153    4.4072 O   0  0
    5.0770   -2.0188    4.3647 O   0  0
    6.2250   -1.5681    3.6313 C   0  0
    2.3531   -0.9049    0.2581 C   0  0
    1.7148    0.4472    0.2936 C   0  0
    1.6644    1.1834   -0.8126 C   0  0
    4.5440   -1.0995    1.6796 H   0  0
    0.3463   -1.8509    1.9601 H   0  0
    1.4624   -3.9579    7.5646 H   0  0
    0.0109   -4.4623    6.6057 H   0  0
    0.0647   -2.8473    7.3420 H   0  0
    7.1202   -1.6647    4.2619 H   0  0
    6.0914   -0.5135    3.3477 H   0  0
    6.3491   -2.1808    2.7261 H   0  0
    3.3169   -0.8394   -0.2660 H   0  0
    1.6625   -1.5510   -0.3014 H   0  0
    1.3119    0.8216    1.2009 H   0  0
    2.0746    0.8089   -1.7166 H   0  0
    1.2155    2.1443   -0.7907 H   0  0
  1  2  1  0
  2  3  2  0
  3  4  1  0
  4  5  2  0
  5  6  1  0
  1  6  2  0
  6  7  1  0
  5  8  1  0
  8  9  1  0
  7  9  1  0
  9 10  1  0
  8 11  2  0
  1 12  1  0
 12 13  1  0
  3 14  1  0
 14 15  1  0
 15 16  2  0
  2 17  1  0
  4 18  1  0
 10 19  1  0
 10 20  1  0
 10 21  1  0
 13 22  1  0
 13 23  1  0
 13 24  1  0
 14 25  1  0
 14 26  1  0
 15 27  1  0
 16 28  1  0
 16 29  1  0
M  END
> <Name>
AMF2021_IVa

> <Clean Energy>
50.5626

$$$$
AMF2021_IVb
  SciTegic12132405553D

 22 23  0  0  0  0            999 V2000
    1.1793    0.0929    0.4899 C   0  0
    0.6601    1.5008    0.6964 C   0  0
    1.1786    2.2639    1.6718 C   0  0
    2.2480    1.7302    2.5355 C   0  0
    2.6582    0.4937    2.3047 C   0  0
    2.1414   -0.3104    1.3088 C   0  0
    2.7837   -1.5244    1.3409 O   0  0
    3.6468   -0.2698    2.9560 C   0  0
    3.6834   -1.4610    2.3466 N   0  0
    4.5618   -2.5263    2.7144 C   0  0
    4.3466    0.0912    3.9081 O   0  0
    0.7070   -0.8060   -0.5097 O   0  0
   -0.3333   -0.2812   -1.3469 C   0  0
   -0.1072    1.9011    0.0861 H   0  0
    0.8191    3.2502    1.8210 H   0  0
    2.6725    2.3143    3.3120 H   0  0
    4.2648   -3.4567    2.2097 H   0  0
    4.5473   -2.6491    3.8068 H   0  0
    5.5858   -2.2555    2.4207 H   0  0
   -0.6285   -1.0442   -2.0812 H   0  0
    0.0331    0.6110   -1.8760 H   0  0
   -1.2039   -0.0132   -0.7302 H   0  0
  1  2  1  0
  2  3  2  0
  3  4  1  0
  4  5  2  0
  5  6  1  0
  1  6  2  0
  6  7  1  0
  5  8  1  0
  8  9  1  0
  7  9  1  0
  9 10  1  0
  8 11  2  0
  1 12  1  0
 12 13  1  0
  2 14  1  0
  3 15  1  0
  4 16  1  0
 10 17  1  0
 10 18  1  0
 10 19  1  0
 13 20  1  0
 13 21  1  0
 13 22  1  0
M  END
> <Name>
AMF2021_IVb

> <Clean Energy>
30.9342

$$$$
AMF2021_IVc
  SciTegic12132405553D

 18 19  0  0  0  0            999 V2000
   -2.2308    1.7033    1.8712 C   0  0
   -3.7011    1.5150    1.9224 C   0  0
   -4.2693    0.5027    1.2471 C   0  0
   -3.4230   -0.4173    0.4569 C   0  0
   -2.1181   -0.1913    0.4551 C   0  0
   -1.5260    0.8459    1.1457 C   0  0
   -0.1690    0.8025    0.9379 O   0  0
   -1.0749   -0.8826   -0.1913 C   0  0
    0.0639   -0.2537    0.1264 N   0  0
    1.3572   -0.6500   -0.3342 C   0  0
   -1.1887   -1.8787   -0.9135 O   0  0
   -1.7598    2.4952    2.3960 H   0  0
   -4.3024    2.1783    2.4909 H   0  0
   -5.3201    0.3637    1.2803 H   0  0
   -3.8431   -1.2252   -0.0863 H   0  0
    2.1294    0.0185    0.0721 H   0  0
    1.3678   -0.6248   -1.4332 H   0  0
    1.5447   -1.6877   -0.0237 H   0  0
  1  2  1  0
  2  3  2  0
  3  4  1  0
  4  5  2  0
  5  6  1  0
  1  6  2  0
  6  7  1  0
  5  8  1  0
  8  9  1  0
  7  9  1  0
  9 10  1  0
  8 11  2  0
  1 12  1  0
  2 13  1  0
  3 14  1  0
  4 15  1  0
 10 16  1  0
 10 17  1  0
 10 18  1  0
M  END
> <Name>
AMF2021_IVc

> <Clean Energy>
30.0268

$$$$
AMF2021_IVd
  SciTegic12132405553D

 36 38  0  0  0  0            999 V2000
    3.6824   -1.5386    3.5576 C   0  0
    3.3089   -0.5784    2.4517 C   0  0
    2.0160   -0.3486    2.1817 C   0  0
    0.9674   -1.0322    2.9585 C   0  0
    1.3584   -1.8588    3.9138 C   0  0
    2.6795   -2.1095    4.2112 C   0  0
    2.7391   -3.0030    5.2462 O   0  0
    0.5934   -2.6338    4.8073 C   0  0
    1.4658   -3.3025    5.5902 N   0  0
    1.1507   -4.1980    6.6385 C   0  0
   -0.6411   -2.6716    4.8483 O   0  0
    1.8761   -5.6922    8.4060 C   0  0
    2.1517   -4.7619    7.3112 C   0  0
   -0.2424   -4.5209    7.0074 C   0  0
   -0.4875   -5.3683    8.0048 C   0  0
    0.6194   -5.9806    8.7361 C   0  0
    5.0185   -1.8580    3.9345 O   0  0
    6.0334   -1.1898    3.1711 C   0  0
    1.6489    0.6081    1.0952 C   0  0
    0.9271    1.7763    1.6960 C   0  0
    1.0336    2.9775    1.1359 C   0  0
    4.0467   -0.0758    1.8826 H   0  0
   -0.0611   -0.8652    2.7617 H   0  0
    2.6785   -6.1370    8.9377 H   0  0
    3.1549   -4.5345    7.0529 H   0  0
   -1.0505   -4.0843    6.4861 H   0  0
   -1.4884   -5.5990    8.2688 H   0  0
    0.4216   -6.6550    9.5304 H   0  0
    7.0239   -1.4986    3.5341 H   0  0
    5.9262   -0.1010    3.2870 H   0  0
    5.9343   -1.4593    2.1091 H   0  0
    2.5170    0.9445    0.5110 H   0  0
    0.9136    0.1117    0.4466 H   0  0
    0.3513    1.6521    2.5781 H   0  0
    1.6244    3.1044    0.2640 H   0  0
    0.5309    3.8083    1.5629 H   0  0
  1  2  1  0
  2  3  2  0
  3  4  1  0
  4  5  2  0
  5  6  1  0
  1  6  2  0
  6  7  1  0
  5  8  1  0
  8  9  1  0
  7  9  1  0
  9 10  1  0
  8 11  2  0
 12 13  1  0
 14 15  2  0
 15 16  1  0
 12 16  2  0
 13 10  2  0
 10 14  1  0
  1 17  1  0
 17 18  1  0
  3 19  1  0
 19 20  1  0
 20 21  2  0
  2 22  1  0
  4 23  1  0
 12 24  1  0
 13 25  1  0
 14 26  1  0
 15 27  1  0
 16 28  1  0
 18 29  1  0
 18 30  1  0
 18 31  1  0
 19 32  1  0
 19 33  1  0
 20 34  1  0
 21 35  1  0
 21 36  1  0
M  END
> <Name>
AMF2021_IVd

> <Clean Energy>
42.1624

$$$$
AMF2021_IVe
  SciTegic12132405553D

 29 31  0  0  0  0            999 V2000
   -2.3207   -1.6622   -1.4759 C   0  0
   -3.8041   -1.3726   -1.5667 C   0  0
   -4.2928   -0.2412   -1.0350 C   0  0
   -3.3857    0.7103   -0.3677 C   0  0
   -2.1004    0.3991   -0.3217 C   0  0
   -1.5757   -0.7546   -0.8594 C   0  0
   -0.2236   -0.7698   -0.6418 O   0  0
   -1.0197    1.1060    0.2421 C   0  0
    0.0876    0.3650    0.0253 N   0  0
    1.4093    0.6816    0.4178 C   0  0
   -1.0983    2.1954    0.8195 O   0  0
    3.7648    0.1079    0.5003 C   0  0
    2.3822   -0.1762    0.1154 C   0  0
    1.7397    1.9233    1.1460 C   0  0
    2.9996    2.1765    1.4938 C   0  0
    4.0585    1.2278    1.1564 C   0  0
   -1.6892   -2.8263   -2.0014 O   0  0
   -2.5751   -3.7499   -2.6501 C   0  0
   -4.4699   -2.0448   -2.0423 H   0  0
   -5.3306   -0.0319   -1.0949 H   0  0
   -3.7487    1.6103    0.0596 H   0  0
    4.5343   -0.5798    0.2561 H   0  0
    2.1534   -1.0700   -0.4074 H   0  0
    0.9827    2.6165    1.3953 H   0  0
    3.2350    3.0685    2.0166 H   0  0
    5.0615    1.4317    1.4345 H   0  0
   -1.9975   -4.6092   -3.0194 H   0  0
   -3.0710   -3.2532   -3.4972 H   0  0
   -3.3322   -4.1010   -1.9334 H   0  0
  1  2  1  0
  2  3  2  0
  3  4  1  0
  4  5  2  0
  5  6  1  0
  1  6  2  0
  6  7  1  0
  5  8  1  0
  8  9  1  0
  7  9  1  0
  9 10  1  0
  8 11  2  0
 12 13  1  0
 14 15  2  0
 15 16  1  0
 12 16  2  0
 13 10  2  0
 10 14  1  0
  1 17  1  0
 17 18  1  0
  2 19  1  0
  3 20  1  0
  4 21  1  0
 12 22  1  0
 13 23  1  0
 14 24  1  0
 15 25  1  0
 16 26  1  0
 18 27  1  0
 18 28  1  0
 18 29  1  0
M  END
> <Name>
AMF2021_IVe

> <Clean Energy>
22.1685

$$$$
AMF2021_IVf
  SciTegic12132405553D

 25 27  0  0  0  0            999 V2000
   -2.6169   -2.1177   -0.4945 C   0  0
   -4.0485   -1.8084   -0.7252 C   0  0
   -4.4664   -0.5326   -0.7095 C   0  0
   -3.4937    0.5530   -0.4621 C   0  0
   -2.2312    0.2048   -0.2640 C   0  0
   -1.7947   -1.1001   -0.2784 C   0  0
   -0.4462   -1.1212   -0.0422 O   0  0
   -1.0990    1.0036   -0.0085 C   0  0
   -0.0492    0.1635    0.1177 N   0  0
    1.2946    0.5204    0.3795 C   0  0
   -1.0952    2.2360    0.0784 O   0  0
    3.6033   -0.1307    0.7408 C   0  0
    2.2014   -0.4509    0.4713 C   0  0
    1.7181    1.9246    0.5524 C   0  0
    2.9952    2.2099    0.7975 C   0  0
    3.9810    1.1358    0.8960 C   0  0
   -2.2629   -3.1172   -0.5021 H   0  0
   -4.7403   -2.5926   -0.9020 H   0  0
   -5.4890   -0.3046   -0.8738 H   0  0
   -3.7939    1.5698   -0.4438 H   0  0
    4.3197   -0.9093    0.8125 H   0  0
    1.9056   -1.4617    0.3484 H   0  0
    1.0146    2.7094    0.4834 H   0  0
    3.2976    3.2188    0.9214 H   0  0
    4.9978    1.3656    1.0913 H   0  0
  1  2  1  0
  2  3  2  0
  3  4  1  0
  4  5  2  0
  5  6  1  0
  1  6  2  0
  6  7  1  0
  5  8  1  0
  8  9  1  0
  7  9  1  0
  9 10  1  0
  8 11  2  0
 12 13  1  0
 14 15  2  0
 15 16  1  0
 12 16  2  0
 13 10  2  0
 10 14  1  0
  1 17  1  0
  2 18  1  0
  3 19  1  0
  4 20  1  0
 12 21  1  0
 13 22  1  0
 14 23  1  0
 15 24  1  0
 16 25  1  0
M  END
> <Name>
AMF2021_IVf

> <Clean Energy>
21.2754

$$$$
AMF2021_IIIa
  SciTegic12132405553D

 32 32  0  0  0  0            999 V2000
    2.6536   -2.1377    3.9247 C   0  0
    3.8486   -1.8447    2.9530 C   0  0
    3.5684   -1.6008    1.6782 C   0  0
    2.2161   -1.5930    1.1899 C   0  0
    1.1959   -1.8446    1.9950 C   0  0
    1.3985   -2.1424    3.4312 C   0  0
    0.2275   -2.4312    4.4142 C   0  0
    0.4874   -2.3960    5.6213 O   0  0
   -1.0771   -2.7229    4.1344 N   0  0
   -1.6435   -2.8845    2.9285 O   0  0
   -1.9431   -2.9052    5.2614 C   0  0
    2.7648   -2.4215    5.3132 O   0  0
    5.2786   -1.7959    3.2307 O   0  0
    5.7828   -2.0305    4.5331 C   0  0
    1.9526   -1.2898   -0.2545 C   0  0
    1.4341    0.1209   -0.3547 C   0  0
    2.2010    1.1508    0.0004 C   0  0
    4.3611   -1.3993    1.0038 H   0  0
    0.2380   -1.8087    1.5938 H   0  0
   -1.0398   -2.8197    2.2233 H   0  0
   -2.9268   -3.2679    4.9309 H   0  0
   -2.0532   -1.9434    5.7823 H   0  0
   -1.4829   -3.6153    5.9638 H   0  0
    3.6382   -2.4202    5.6458 H   0  0
    6.8788   -1.9467    4.5224 H   0  0
    5.4951   -3.0402    4.8601 H   0  0
    5.3645   -1.2866    5.2264 H   0  0
    2.9039   -1.3593   -0.8003 H   0  0
    1.1773   -1.9617   -0.6484 H   0  0
    0.4590    0.2968   -0.7323 H   0  0
    3.1841    0.9824    0.3626 H   0  0
    1.8288    2.1405   -0.0806 H   0  0
  1  2  1  0
  2  3  2  0
  3  4  1  0
  4  5  2  0
  5  6  1  0
  1  6  2  0
  6  7  1  0
  7  9  1  0
  9 10  1  0
  9 11  1  0
  7  8  2  0
  1 12  1  0
  2 13  1  0
 13 14  1  0
  4 15  1  0
 15 16  1  0
 16 17  2  0
  3 18  1  0
  5 19  1  0
 10 20  1  0
 11 21  1  0
 11 22  1  0
 11 23  1  0
 12 24  1  0
 14 25  1  0
 14 26  1  0
 14 27  1  0
 15 28  1  0
 15 29  1  0
 16 30  1  0
 17 31  1  0
 17 32  1  0
M  END
> <Name>
AMF2021_IIIa

> <Clean Energy>
48.5518

$$$$
AMF2021_IIIb
  SciTegic12132405553D

 25 25  0  0  0  0            999 V2000
   -0.8523   -1.9626   -0.1288 C   0  0
   -0.1959   -3.2622    0.1237 C   0  0
    1.1280   -3.2951    0.3465 C   0  0
    1.8929   -2.0647    0.3393 C   0  0
    1.3061   -0.8952    0.1118 C   0  0
   -0.1569   -0.8137   -0.1434 C   0  0
   -0.9475    0.4964   -0.4183 C   0  0
   -2.1708    0.3803   -0.5449 O   0  0
   -0.4964    1.7789   -0.5445 N   0  0
    0.7646    2.2178   -0.4733 O   0  0
   -1.4933    2.7779   -0.7901 C   0  0
   -2.2281   -1.9504   -0.3586 O   0  0
   -1.0405   -4.4320    0.1124 O   0  0
   -0.4037   -5.7002    0.3574 C   0  0
    1.6418   -4.1991    0.5316 H   0  0
    2.9371   -2.0982    0.5205 H   0  0
    1.8948   -0.0462    0.1228 H   0  0
    1.3779    1.5431   -0.3302 H   0  0
   -1.0263    3.7688   -0.8818 H   0  0
   -2.2183    2.7712    0.0366 H   0  0
   -2.0367    2.5234   -1.7116 H   0  0
   -2.5876   -2.8667   -0.3159 H   0  0
   -1.1581   -6.4990    0.3201 H   0  0
    0.0683   -5.6908    1.3512 H   0  0
    0.3607   -5.8847   -0.4122 H   0  0
  1  2  1  0
  2  3  2  0
  3  4  1  0
  4  5  2  0
  5  6  1  0
  1  6  2  0
  6  7  1  0
  7  9  1  0
  9 10  1  0
  9 11  1  0
  7  8  2  0
  1 12  1  0
  2 13  1  0
 13 14  1  0
  3 15  1  0
  4 16  1  0
  5 17  1  0
 10 18  1  0
 11 19  1  0
 11 20  1  0
 11 21  1  0
 12 22  1  0
 14 23  1  0
 14 24  1  0
 14 25  1  0
M  END
> <Name>
AMF2021_IIIb

> <Clean Energy>
17.9412

$$$$
DJA2020a_1
  SciTegic12132405553D

 46 48  0  0  0  0            999 V2000
   -5.0524    0.1424   -1.0404 C   0  0
   -3.8577    0.6331   -0.2521 C   0  0
   -2.8051   -0.1753   -0.0483 C   0  0
   -2.8069   -1.5468   -0.6210 C   0  0
   -3.8729   -1.9194   -1.3066 C   0  0
   -4.9903   -1.0945   -1.5081 C   0  0
   -5.6705   -3.1962   -2.0130 C   0  0  1  0  0  0
   -5.9892   -1.8018   -2.2023 O   0  0
   -4.1163   -3.1459   -2.0419 C   0  0  1  0  0  0
   -7.4673   -3.3383    1.4345 C   0  0
   -7.0046   -2.8809    0.0891 C   0  0
   -6.1607   -3.6350   -0.6237 C   0  0
   -5.7143   -4.9233   -0.0865 C   0  0
   -6.1315   -5.3355    1.1067 C   0  0
   -7.0387   -4.5101    1.8971 C   0  0
   -8.3497   -2.5839    2.2680 O   0  0
   -7.4581   -4.9518    3.1446 O   0  0
   -3.6656   -2.8561   -3.4886 C   0  0
   -6.2342    0.9005   -1.2765 O   0  0
   -1.6636    0.3409    0.7337 C   0  0
   -0.5788   -0.3957    0.9768 C   0  0
    0.5414    0.1908    1.7777 C   0  0
   -6.2257    2.2186   -0.7137 C   0  0
   -8.7734   -1.3206    1.7294 C   0  0
   -3.8347    1.6082    0.1592 H   0  0
   -1.9778   -2.1957   -0.5140 H   0  0
   -6.0435   -3.9175   -2.7521 H   0  0
   -3.5963   -4.0535   -1.7068 H   0  0
   -7.3282   -1.9609   -0.3171 H   0  0
   -5.0559   -5.5328   -0.6519 H   0  0
   -5.8026   -6.2691    1.4865 H   0  0
   -7.0504   -5.8329    3.3346 H   0  0
   -2.5774   -2.7040   -3.5060 H   0  0
   -4.1655   -1.9558   -3.8697 H   0  0
   -3.9264   -3.7120   -4.1260 H   0  0
   -1.7084    1.3295    1.1149 H   0  0
   -0.5002   -1.3852    0.6128 H   0  0
    1.2498   -0.5948    2.0775 H   0  0
    0.1292    0.7086    2.6558 H   0  0
    1.0587    0.9398    1.1613 H   0  0
   -7.1748    2.7206   -0.9496 H   0  0
   -5.3921    2.7967   -1.1392 H   0  0
   -6.1102    2.1528    0.3784 H   0  0
   -9.4426   -0.8254    2.4472 H   0  0
   -9.3101   -1.4832    0.7832 H   0  0
   -7.8944   -0.6817    1.5498 H   0  0
  1  2  1  0
  2  3  2  0
  3  4  1  0
  4  5  2  0
  5  6  1  0
  1  6  2  0
  7  8  1  0
  7  9  1  0
  8  6  1  0
  9  5  1  0
 10 11  1  0
 11 12  2  0
 12 13  1  0
 13 14  2  0
 14 15  1  0
 10 15  2  0
  7 12  1  0
 10 16  1  0
 15 17  1  0
  9 18  1  0
  1 19  1  0
  3 20  1  0
 21 22  1  0
 20 21  2  0
 19 23  1  0
 16 24  1  0
  2 25  1  0
  4 26  1  0
  7 27  1  0
  9 28  1  0
 11 29  1  0
 13 30  1  0
 14 31  1  0
 17 32  1  0
 18 33  1  0
 18 34  1  0
 18 35  1  0
 20 36  1  0
 21 37  1  0
 22 38  1  0
 22 39  1  0
 22 40  1  0
 23 41  1  0
 23 42  1  0
 23 43  1  0
 24 44  1  0
 24 45  1  0
 24 46  1  0
M  END
> <Name>
DJA2020a_1

> <Clean Energy>
62.2535018920898

$$$$
DJA2020a_2
  SciTegic12132405553D

 59 62  0  0  0  0            999 V2000
   -5.7737   -0.9002   -8.8950 C   0  0
   -6.7138   -1.0567  -10.0715 C   0  0
   -6.8746   -2.2572  -10.6510 C   0  0
   -6.1186   -3.4259  -10.1371 C   0  0
   -5.3142   -3.2292   -9.1072 C   0  0
   -5.1404   -1.9897   -8.4852 C   0  0
   -3.4519   -3.3259   -7.6307 C   0  0  1  0  0  0
   -4.2175   -2.1027   -7.4349 O   0  0
   -4.5616   -4.1907   -8.3394 C   0  0  1  0  0  0
   -0.8779   -2.0557  -10.3620 C   0  0
   -2.1914   -2.4147   -9.6998 C   0  0
   -2.1992   -2.9327   -8.4625 C   0  0
   -0.9371   -3.1559   -7.7801 C   0  0
    0.2234   -2.8515   -8.3416 C   0  0
    0.2679   -2.2618   -9.7092 C   0  0
   -0.7838   -1.4852  -11.6694 O   0  0
    1.4969   -1.8899  -10.3655 O   0  0
   -5.5691   -4.6118   -7.2461 C   0  0
   -5.5297    0.3273   -8.2152 O   0  0
   -7.8456   -2.3774  -11.7584 C   0  0
   -8.1251   -3.5491  -12.3329 C   0  0
   -9.1482   -3.6054  -13.4254 C   0  0
   -6.2520    1.4541   -8.7316 C   0  0
   -2.0357   -1.2682  -12.3391 C   0  0
    2.6852   -2.1367   -9.5838 C   0  0
    3.9206   -1.6628  -10.2775 C   0  0
    6.2988   -1.8196  -10.7018 C   0  0
    5.0768   -2.2804  -10.0453 C   0  0
    3.8689   -0.5216  -11.1886 C   0  0
    4.9820   -0.0989  -11.7863 C   0  0
    6.2553   -0.7792  -11.5311 C   0  0
   -7.2702   -0.2371  -10.4438 H   0  0
   -6.2467   -4.3935  -10.5474 H   0  0
   -3.0676   -3.8189   -6.7280 H   0  0
   -4.2264   -5.1136   -8.8321 H   0  0
   -3.1026   -2.2508  -10.1943 H   0  0
   -0.9450   -3.5714   -6.8053 H   0  0
    1.1053   -3.0373   -7.7896 H   0  0
   -6.4140   -5.1366   -7.7134 H   0  0
   -5.9409   -3.7306   -6.7075 H   0  0
   -5.0684   -5.2838   -6.5360 H   0  0
   -8.3540   -1.5089  -12.0924 H   0  0
   -7.6463   -4.4372  -12.0172 H   0  0
   -9.1514   -4.5982  -13.8979 H   0  0
   -8.9394   -2.8179  -14.1620 H   0  0
  -10.1376   -3.3975  -12.9893 H   0  0
   -5.9968    2.3489   -8.1465 H   0  0
   -7.3333    1.2659   -8.6567 H   0  0
   -5.9780    1.6174   -9.7848 H   0  0
   -1.8464   -0.8281  -13.3290 H   0  0
   -2.6573   -0.5796  -11.7471 H   0  0
   -2.5610   -2.2269  -12.4610 H   0  0
    2.5974   -1.5603   -8.6518 H   0  0
    2.7927   -3.1987   -9.3197 H   0  0
    7.2197   -2.3123  -10.5150 H   0  0
    5.1112   -3.1051   -9.3792 H   0  0
    2.9478   -0.0294  -11.3709 H   0  0
    4.9477    0.7303  -12.4460 H   0  0
    7.1421   -0.4426  -12.0061 H   0  0
  1  2  1  0
  2  3  2  0
  3  4  1  0
  4  5  2  0
  5  6  1  0
  1  6  2  0
  7  8  1  0
  7  9  1  0
  8  6  1  0
  9  5  1  0
 10 11  1  0
 11 12  2  0
 12 13  1  0
 13 14  2  0
 14 15  1  0
 10 15  2  0
  7 12  1  0
 10 16  1  0
 15 17  1  0
  9 18  1  0
  1 19  1  0
  3 20  1  0
 21 22  1  0
 20 21  2  0
 19 23  1  0
 16 24  1  0
 17 25  1  0
 25 26  1  0
 27 28  1  0
 29 30  2  0
 30 31  1  0
 27 31  2  0
 28 26  2  0
 26 29  1  0
  2 32  1  0
  4 33  1  0
  7 34  1  0
  9 35  1  0
 11 36  1  0
 13 37  1  0
 14 38  1  0
 18 39  1  0
 18 40  1  0
 18 41  1  0
 20 42  1  0
 21 43  1  0
 22 44  1  0
 22 45  1  0
 22 46  1  0
 23 47  1  0
 23 48  1  0
 23 49  1  0
 24 50  1  0
 24 51  1  0
 24 52  1  0
 25 53  1  0
 25 54  1  0
 27 55  1  0
 28 56  1  0
 29 57  1  0
 30 58  1  0
 31 59  1  0
M  END
> <Name>
DJA2020a_2

> <Clean Energy>
79.2569

$$$$
DJA2020a_3
  SciTegic12132405553D

 60 63  0  0  0  0            999 V2000
    4.2264   -2.2338   -0.9385 C   0  0
    3.1467   -2.3411   -2.0040 C   0  0
    2.9376   -3.5166   -2.6214 C   0  0
    3.8353   -4.6585   -2.3233 C   0  0
    4.7515   -4.5008   -1.3828 C   0  0
    4.9021   -3.3339   -0.6502 C   0  0
    6.6838   -4.6318    0.0153 C   0  0  1  0  0  0
    5.8712   -3.4928    0.3370 O   0  0
    5.6667   -5.4750   -0.8409 C   0  0  1  0  0  0
    9.4177   -2.7000   -2.0663 C   0  0
    8.0361   -3.2508   -1.7093 C   0  0
    7.9248   -4.0111   -0.6041 C   0  0
    9.0930   -4.3005    0.1946 C   0  0
   10.2779   -3.8139   -0.0955 C   0  0
   10.4533   -2.9601   -1.2814 C   0  0
    9.7273   -1.8847   -3.1856 O   0  0
   11.6972   -2.4041   -1.6667 O   0  0
    4.7741   -6.2364    0.1297 C   0  0
    4.5603   -1.0500   -0.2322 O   0  0
    1.7656   -3.6707   -3.5367 C   0  0
    1.4570   -4.8530   -4.0838 C   0  0
    0.2296   -4.9970   -4.9412 C   0  0
    4.0482    0.1493   -0.8232 C   0  0
    8.6881   -1.6390   -4.1016 C   0  0
   12.7398   -2.5991   -0.7249 C   0  0
   14.0154   -2.1962   -1.3134 C   0  0
   16.3522   -2.6329   -1.6422 C   0  0
   15.0728   -2.9524   -1.0578 C   0  0
   14.1247   -1.0282   -2.1834 C   0  0
   15.3035   -0.7308   -2.7274 C   0  0
   16.4716   -1.5785   -2.4424 C   0  0
   17.7301   -1.2841   -3.0210 C   0  0
   18.7536   -1.0473   -3.4897 N   0  0
    2.4959   -1.5269   -2.2080 H   0  0
    3.7259   -5.5877   -2.8132 H   0  0
    7.0724   -5.2269    0.8471 H   0  0
    6.0935   -6.2495   -1.4911 H   0  0
    7.1814   -3.0191   -2.2929 H   0  0
    8.9924   -4.9225    1.0459 H   0  0
   11.0863   -4.0738    0.5330 H   0  0
    4.0036   -6.7752   -0.4387 H   0  0
    4.3031   -5.5490    0.8357 H   0  0
    5.3972   -6.9603    0.6777 H   0  0
    1.1332   -2.8366   -3.7180 H   0  0
    2.0560   -5.7026   -3.9003 H   0  0
    0.1936   -6.0027   -5.3898 H   0  0
    0.2289   -4.2222   -5.7166 H   0  0
   -0.6619   -4.8391   -4.3123 H   0  0
    4.3100    1.0080   -0.1900 H   0  0
    2.9651    0.1030   -0.9545 H   0  0
    4.5372    0.2709   -1.8089 H   0  0
    9.0668   -0.9555   -4.8803 H   0  0
    7.8351   -1.1809   -3.5933 H   0  0
    8.3898   -2.5877   -4.5641 H   0  0
   12.5175   -1.9668    0.1505 H   0  0
   12.8286   -3.6431   -0.4076 H   0  0
   17.1912   -3.2446   -1.4394 H   0  0
   14.9710   -3.8019   -0.4313 H   0  0
   13.2723   -0.4257   -2.3843 H   0  0
   15.3991    0.1111   -3.3649 H   0  0
  1  2  1  0
  2  3  2  0
  3  4  1  0
  4  5  2  0
  5  6  1  0
  1  6  2  0
  7  8  1  0
  7  9  1  0
  8  6  1  0
  9  5  1  0
 10 11  1  0
 11 12  2  0
 12 13  1  0
 13 14  2  0
 14 15  1  0
 10 15  2  0
  7 12  1  0
 10 16  1  0
 15 17  1  0
  9 18  1  0
  1 19  1  0
  3 20  1  0
 21 22  1  0
 20 21  2  0
 19 23  1  0
 16 24  1  0
 17 25  1  0
 25 26  1  0
 27 28  1  0
 29 30  2  0
 30 31  1  0
 27 31  2  0
 28 26  2  0
 26 29  1  0
 31 32  1  0
 32 33  3  0
  2 34  1  0
  4 35  1  0
  7 36  1  0
  9 37  1  0
 11 38  1  0
 13 39  1  0
 14 40  1  0
 18 41  1  0
 18 42  1  0
 18 43  1  0
 20 44  1  0
 21 45  1  0
 22 46  1  0
 22 47  1  0
 22 48  1  0
 23 49  1  0
 23 50  1  0
 23 51  1  0
 24 52  1  0
 24 53  1  0
 24 54  1  0
 25 55  1  0
 25 56  1  0
 27 57  1  0
 28 58  1  0
 29 59  1  0
 30 60  1  0
M  END
> <Name>
DJA2020a_3

> <Clean Energy>
97.9674

$$$$
DJA2020a_4
  SciTegic12132405553D

 59 62  0  0  0  0            999 V2000
  -11.4839   -3.7909    3.5554 C   0  0
  -12.7220   -3.9072    2.6930 C   0  0
  -12.9469   -5.0309    1.9911 C   0  0
  -11.9450   -6.1235    2.0224 C   0  0
  -10.8816   -5.9614    2.7904 C   0  0
  -10.6632   -4.8303    3.5753 C   0  0
   -8.6896   -6.0296    3.7505 C   0  0  1  0  0  0
   -9.4930   -4.9795    4.3336 O   0  0
   -9.8434   -6.9041    3.1093 C   0  0  1  0  0  0
   -6.8067   -3.7812    1.1019 C   0  0
   -7.9530   -4.4910    1.8151 C   0  0
   -7.6838   -5.2734    2.8694 C   0  0
   -6.3133   -5.4383    3.3073 C   0  0
   -5.3071   -4.8322    2.7041 C   0  0
   -5.5536   -3.9500    1.5346 C   0  0
   -6.9825   -2.9119   -0.0160 O   0  0
   -4.4941   -3.2635    0.8384 O   0  0
  -10.4977   -7.6967    4.2574 C   0  0
  -11.1631   -2.6581    4.3550 O   0  0
  -14.2365   -5.1629    1.2790 C   0  0
  -14.6132   -6.3124    0.7101 C   0  0
  -15.9696   -6.4123    0.0788 C   0  0
  -12.0889   -1.5692    4.2512 C   0  0
   -8.3349   -2.7245   -0.4447 C   0  0
   -3.1805   -3.4841    1.3989 C   0  0
   -2.1200   -2.7970    0.6118 C   0  0
    0.1358   -2.7234   -0.2560 C   0  0
   -0.9215   -3.3668    0.5151 C   0  0
   -2.3831   -1.5220   -0.0487 C   0  0
   -1.4188   -0.9317   -0.7538 C   0  0
   -0.0990   -1.5628   -0.8635 C   0  0
    0.8708   -0.9726   -1.5749 F   0  0
  -13.4536   -3.1436    2.6723 H   0  0
  -12.0970   -7.0278    1.4901 H   0  0
   -8.0731   -6.6288    4.4320 H   0  0
   -9.5460   -7.6515    2.3593 H   0  0
   -8.9532   -4.3633    1.5032 H   0  0
   -6.1117   -6.0601    4.1410 H   0  0
   -4.3344   -4.9972    3.0818 H   0  0
  -11.3667   -8.2481    3.8698 H   0  0
  -10.8225   -7.0156    5.0531 H   0  0
   -9.7659   -8.4077    4.6641 H   0  0
  -14.9053   -4.3408    1.2636 H   0  0
  -13.9824   -7.1602    0.7316 H   0  0
  -16.0550   -7.3413   -0.5033 H   0  0
  -16.1524   -5.5310   -0.5479 H   0  0
  -16.7261   -6.4121    0.8817 H   0  0
  -11.7521   -0.7439    4.8939 H   0  0
  -13.0871   -1.8981    4.5714 H   0  0
  -12.1315   -1.2221    3.2065 H   0  0
   -8.3489   -2.0351   -1.3024 H   0  0
   -8.9264   -2.2945    0.3775 H   0  0
   -8.7648   -3.6895   -0.7450 H   0  0
   -3.1757   -3.0646    2.4172 H   0  0
   -2.9373   -4.5536    1.4629 H   0  0
    1.0893   -3.1815   -0.3341 H   0  0
   -0.7369   -4.2933    0.9981 H   0  0
   -3.3377   -1.0680    0.0328 H   0  0
   -1.6046   -0.0064   -1.2358 H   0  0
  1  2  1  0
  2  3  2  0
  3  4  1  0
  4  5  2  0
  5  6  1  0
  1  6  2  0
  7  8  1  0
  7  9  1  0
  8  6  1  0
  9  5  1  0
 10 11  1  0
 11 12  2  0
 12 13  1  0
 13 14  2  0
 14 15  1  0
 10 15  2  0
  7 12  1  0
 10 16  1  0
 15 17  1  0
  9 18  1  0
  1 19  1  0
  3 20  1  0
 21 22  1  0
 20 21  2  0
 19 23  1  0
 16 24  1  0
 17 25  1  0
 25 26  1  0
 27 28  1  0
 29 30  2  0
 30 31  1  0
 27 31  2  0
 28 26  2  0
 26 29  1  0
 31 32  1  0
  2 33  1  0
  4 34  1  0
  7 35  1  0
  9 36  1  0
 11 37  1  0
 13 38  1  0
 14 39  1  0
 18 40  1  0
 18 41  1  0
 18 42  1  0
 20 43  1  0
 21 44  1  0
 22 45  1  0
 22 46  1  0
 22 47  1  0
 23 48  1  0
 23 49  1  0
 23 50  1  0
 24 51  1  0
 24 52  1  0
 24 53  1  0
 25 54  1  0
 25 55  1  0
 27 56  1  0
 28 57  1  0
 29 58  1  0
 30 59  1  0
M  END
> <Name>
DJA2020a_4

> <Clean Energy>
84.9219

$$$$
DJA2020a_5
  SciTegic12132405553D

 59 62  0  0  0  0            999 V2000
  -11.6075   -3.4743    3.3947 C   0  0
  -12.6775   -3.6513    2.3383 C   0  0
  -12.8031   -4.8236    1.6958 C   0  0
  -11.8811   -5.9398    2.0210 C   0  0
  -10.9682   -5.7273    2.9525 C   0  0
  -10.8279   -4.5177    3.6386 C   0  0
   -8.9257   -5.7277    4.1717 C   0  0  1  0  0  0
   -9.7674   -4.6022    4.5528 O   0  0
  -10.0352   -6.6539    3.5452 C   0  0  1  0  0  0
   -6.8607   -4.0380    1.2423 C   0  0
   -8.0377   -4.5672    2.0351 C   0  0
   -7.8351   -5.1596    3.2214 C   0  0
   -6.4793   -5.2973    3.7221 C   0  0
   -5.4354   -4.8440    3.0444 C   0  0
   -5.6249   -4.1687    1.7296 C   0  0
   -6.9918   -3.3807   -0.0202 O   0  0
   -4.5313   -3.6362    0.9543 O   0  0
  -10.8461   -7.2420    4.7217 C   0  0
  -11.3892   -2.2732    4.1284 O   0  0
  -13.8982   -4.9723    0.7149 C   0  0
  -14.1435   -6.1285    0.0951 C   0  0
  -15.2942   -6.2200   -0.8594 C   0  0
  -12.2745   -1.1952    3.7934 C   0  0
   -8.3355   -3.2487   -0.5101 C   0  0
   -3.2336   -3.8124    1.5618 C   0  0
   -2.1456   -3.1784    0.7577 C   0  0
    0.1624   -3.0773    0.0349 C   0  0
   -0.9191   -3.6939    0.8004 C   0  0
   -2.4152   -1.9936   -0.0542 C   0  0
   -1.4300   -1.4288   -0.7511 C   0  0
   -0.0793   -1.9968   -0.7041 C   0  0
    1.2000   -1.2646   -1.6051 Cl  0  0
  -13.3517   -2.8707    2.1019 H   0  0
  -11.9733   -6.8880    1.5590 H   0  0
   -8.3820   -6.2349    4.9796 H   0  0
   -9.6849   -7.5059    2.9465 H   0  0
   -9.0173   -4.4649    1.6720 H   0  0
   -6.3209   -5.7714    4.6565 H   0  0
   -4.4755   -4.9748    3.4667 H   0  0
  -11.6936   -7.8190    4.3262 H   0  0
  -11.2227   -6.4381    5.3673 H   0  0
  -10.1962   -7.9031    5.3108 H   0  0
  -14.5243   -4.1405    0.5137 H   0  0
  -13.5475   -6.9818    0.2804 H   0  0
  -15.2658   -7.1741   -1.4049 H   0  0
  -15.2633   -5.3677   -1.5515 H   0  0
  -16.2311   -6.1475   -0.2857 H   0  0
  -12.0272   -0.3175    4.4070 H   0  0
  -13.3142   -1.4960    3.9901 H   0  0
  -12.1594   -0.9397    2.7292 H   0  0
   -8.3191   -2.7312   -1.4803 H   0  0
   -8.9340   -2.6639    0.2047 H   0  0
   -8.7827   -4.2458   -0.6365 H   0  0
   -3.2504   -3.3059    2.5375 H   0  0
   -2.9981   -4.8729    1.7319 H   0  0
    1.1397   -3.4886    0.0709 H   0  0
   -0.7262   -4.5507    1.3951 H   0  0
   -3.3920   -1.5828   -0.0857 H   0  0
   -1.6220   -0.5678   -1.3391 H   0  0
  1  2  1  0
  2  3  2  0
  3  4  1  0
  4  5  2  0
  5  6  1  0
  1  6  2  0
  7  8  1  0
  7  9  1  0
  8  6  1  0
  9  5  1  0
 10 11  1  0
 11 12  2  0
 12 13  1  0
 13 14  2  0
 14 15  1  0
 10 15  2  0
  7 12  1  0
 10 16  1  0
 15 17  1  0
  9 18  1  0
  1 19  1  0
  3 20  1  0
 21 22  1  0
 20 21  2  0
 19 23  1  0
 16 24  1  0
 17 25  1  0
 25 26  1  0
 27 28  1  0
 29 30  2  0
 30 31  1  0
 27 31  2  0
 28 26  2  0
 26 29  1  0
 31 32  1  0
  2 33  1  0
  4 34  1  0
  7 35  1  0
  9 36  1  0
 11 37  1  0
 13 38  1  0
 14 39  1  0
 18 40  1  0
 18 41  1  0
 18 42  1  0
 20 43  1  0
 21 44  1  0
 22 45  1  0
 22 46  1  0
 22 47  1  0
 23 48  1  0
 23 49  1  0
 23 50  1  0
 24 51  1  0
 24 52  1  0
 24 53  1  0
 25 54  1  0
 25 55  1  0
 27 56  1  0
 28 57  1  0
 29 58  1  0
 30 59  1  0
M  END
> <Name>
DJA2020a_5

> <Clean Energy>
79.254

$$$$
DJA2020a_6
  SciTegic12132405553D

 55 57  0  0  0  0            999 V2000
    0.1377   -5.5635    1.3404 C   0  0
   -0.9946   -6.2221    2.0877 C   0  0
   -0.8142   -7.3754    2.7298 C   0  0
    0.4841   -8.0098    2.7097 C   0  0
    1.5025   -7.4532    2.0611 C   0  0
    1.3560   -6.1801    1.3395 C   0  0
    2.5170   -4.4834   -0.0564 C   0  0
    2.5893   -5.7022    0.6862 O   0  0
    5.1589   -2.8688   -2.2714 C   0  0
    3.8798   -3.4345   -1.7596 C   0  0
    3.8349   -4.0086   -0.5635 C   0  0
    5.0349   -4.1179    0.2544 C   0  0
    6.1897   -3.6168   -0.1816 C   0  0
    6.2530   -2.9408   -1.5180 C   0  0
    5.2839   -2.2089   -3.5332 O   0  0
    7.4196   -2.3217   -2.0418 O   0  0
   -0.0804   -4.3047    0.6570 O   0  0
   -1.9165   -8.0423    3.4817 C   0  0
   -3.1468   -7.5257    3.5679 C   0  0
   -4.2007   -8.2500    4.3444 C   0  0
   -1.3935   -3.7272    0.7286 C   0  0
    4.0811   -2.1371   -4.3136 C   0  0
    8.5831   -2.3585   -1.2119 C   0  0
    9.6282   -1.4905   -1.8308 C   0  0
   11.9261   -0.9260   -2.3413 C   0  0
   10.9177   -1.8039   -1.7376 C   0  0
    9.2168   -0.2755   -2.5338 C   0  0
   10.1309    0.5213   -3.0806 C   0  0
   11.5497    0.1816   -2.9795 C   0  0
   12.7362    1.2189   -3.6868 Cl  0  0
   -1.9428   -5.7773    2.1145 H   0  0
    0.6254   -8.9287    3.2196 H   0  0
    2.4443   -7.9402    2.0641 H   0  0
    1.7985   -4.5596   -0.8848 H   0  0
    2.1647   -3.7170    0.6462 H   0  0
    2.9835   -3.3638   -2.3167 H   0  0
    4.9866   -4.5892    1.2033 H   0  0
    7.0477   -3.7009    0.4333 H   0  0
   -1.7160   -8.9615    3.9702 H   0  0
   -3.3872   -6.6103    3.0968 H   0  0
   -5.1735   -7.7491    4.2282 H   0  0
   -3.9097   -8.2677    5.4042 H   0  0
   -4.2535   -9.2912    3.9975 H   0  0
   -1.4037   -2.7816    0.1681 H   0  0
   -1.6529   -3.5304    1.7795 H   0  0
   -2.1267   -4.4192    0.2900 H   0  0
    4.2902   -1.6132   -5.2567 H   0  0
    3.3099   -1.5866   -3.7544 H   0  0
    3.7222   -3.1539   -4.5333 H   0  0
    8.3145   -1.9052   -0.2477 H   0  0
    8.9556   -3.3784   -1.0389 H   0  0
   12.9549   -1.1705   -2.2677 H   0  0
   11.2152   -2.6824   -1.2246 H   0  0
    8.1872   -0.0287   -2.6056 H   0  0
    9.8303    1.4029   -3.5885 H   0  0
  1  2  1  0
  2  3  2  0
  3  4  1  0
  4  5  2  0
  5  6  1  0
  1  6  2  0
  7  8  1  0
  8  6  1  0
  9 10  1  0
 10 11  2  0
 11 12  1  0
 12 13  2  0
 13 14  1  0
  9 14  2  0
  7 11  1  0
  9 15  1  0
 14 16  1  0
  1 17  1  0
  3 18  1  0
 19 20  1  0
 18 19  2  0
 17 21  1  0
 15 22  1  0
 16 23  1  0
 23 24  1  0
 25 26  1  0
 27 28  2  0
 28 29  1  0
 25 29  2  0
 26 24  2  0
 24 27  1  0
 29 30  1  0
  2 31  1  0
  4 32  1  0
  5 33  1  0
  7 34  1  0
  7 35  1  0
 10 36  1  0
 12 37  1  0
 13 38  1  0
 18 39  1  0
 19 40  1  0
 20 41  1  0
 20 42  1  0
 20 43  1  0
 21 44  1  0
 21 45  1  0
 21 46  1  0
 22 47  1  0
 22 48  1  0
 22 49  1  0
 23 50  1  0
 23 51  1  0
 25 52  1  0
 26 53  1  0
 27 54  1  0
 28 55  1  0
M  END
> <Name>
DJA2020a_6

> <Clean Energy>
39.551

$$$$
DJA2020a_7
  SciTegic12132405553D

 58 61  0  0  0  0            999 V2000
  -10.7649    1.4342   -6.4769 C   0  0
  -11.6667    0.9052   -7.5716 C   0  0
  -11.7823   -0.4182   -7.7640 C   0  0
  -10.9779   -1.3502   -6.9370 C   0  0
  -10.2045   -0.8282   -5.9995 C   0  0
  -10.1188    0.5392   -5.7444 C   0  0
   -8.4545   -0.3879   -4.4280 C   0  0  1  0  0  0
   -9.2754    0.7806   -4.6502 O   0  0
   -9.4384   -1.4974   -4.9829 C   0  0  1  0  0  0
   -5.5838    0.5300   -6.9850 C   0  0
   -6.9709    0.1652   -6.4657 C   0  0
   -7.1417   -0.0585   -5.1552 C   0  0
   -6.0090    0.0421   -4.2584 C   0  0
   -4.8007    0.3574   -4.6878 C   0  0
   -4.5606    0.6195   -6.1301 C   0  0
   -5.2947    0.8058   -8.3550 O   0  0
   -3.2629    0.9660   -6.6543 O   0  0
  -10.5092   -1.7303   -3.8995 C   0  0
  -10.5870    2.8135   -6.1759 O   0  0
  -12.7765   -0.8977   -8.7493 C   0  0
  -13.0745   -2.1938   -8.8785 C   0  0
  -14.1180   -2.6010   -9.8167 C   0  0
  -11.2986    3.7116   -7.0368 C   0  0
   -6.4102    0.7301   -9.2481 C   0  0
   -2.2288    1.0671   -5.6497 C   0  0
   -0.9007    1.3697   -6.2506 C   0  0
    1.5055    1.1298   -6.2540 C   0  0
    0.1905    0.8609   -5.6841 C   0  0
   -0.7886    2.2049   -7.4427 C   0  0
    0.4118    2.4525   -7.9656 C   0  0
    1.6141    1.8869   -7.3431 C   0  0
    3.1710    2.2006   -8.0215 Cl  0  0
  -14.4307   -3.7937   -9.9128 O   0  0
  -12.2583    1.5558   -8.1601 H   0  0
  -11.0547   -2.4007   -7.0536 H   0  0
   -8.1581   -0.6044   -3.3942 H   0  0
   -9.0067   -2.4857   -5.1972 H   0  0
   -7.7988    0.1013   -7.1173 H   0  0
   -6.1550   -0.1376   -3.2246 H   0  0
   -4.0238    0.4152   -3.9745 H   0  0
  -11.2683   -2.4277   -4.2826 H   0  0
  -10.9882   -0.7821   -3.6278 H   0  0
  -10.0307   -2.1635   -3.0108 H   0  0
  -13.3044   -0.1897   -9.3360 H   0  0
  -12.5849   -2.9240   -8.2914 H   0  0
  -14.6327   -1.8701  -10.3880 H   0  0
  -11.0908    4.7469   -6.7329 H   0  0
  -12.3779    3.5189   -6.9646 H   0  0
  -10.9655    3.5643   -8.0766 H   0  0
   -6.0718    0.9666  -10.2683 H   0  0
   -7.1779    1.4565   -8.9420 H   0  0
   -6.8312   -0.2840   -9.2291 H   0  0
   -2.4960    1.8958   -4.9753 H   0  0
   -2.1462    0.1477   -5.0541 H   0  0
    2.3733    0.7196   -5.8023 H   0  0
    0.1019    0.2550   -4.8176 H   0  0
   -1.6591    2.6124   -7.8901 H   0  0
    0.4988    3.0575   -8.8313 H   0  0
  1  2  1  0
  2  3  2  0
  3  4  1  0
  4  5  2  0
  5  6  1  0
  1  6  2  0
  7  8  1  0
  7  9  1  0
  8  6  1  0
  9  5  1  0
 10 11  1  0
 11 12  2  0
 12 13  1  0
 13 14  2  0
 14 15  1  0
 10 15  2  0
  7 12  1  0
 10 16  1  0
 15 17  1  0
  9 18  1  0
  1 19  1  0
  3 20  1  0
 21 22  1  0
 20 21  2  0
 19 23  1  0
 16 24  1  0
 17 25  1  0
 25 26  1  0
 27 28  1  0
 29 30  2  0
 30 31  1  0
 27 31  2  0
 28 26  2  0
 26 29  1  0
 31 32  1  0
 22 33  2  0
  2 34  1  0
  4 35  1  0
  7 36  1  0
  9 37  1  0
 11 38  1  0
 13 39  1  0
 14 40  1  0
 18 41  1  0
 18 42  1  0
 18 43  1  0
 20 44  1  0
 21 45  1  0
 22 46  1  0
 23 47  1  0
 23 48  1  0
 23 49  1  0
 24 50  1  0
 24 51  1  0
 24 52  1  0
 25 53  1  0
 25 54  1  0
 27 55  1  0
 28 56  1  0
 29 57  1  0
 30 58  1  0
M  END
> <Name>
DJA2020a_7

> <Clean Energy>
76.2448

$$$$
DJA2020a_8
  SciTegic12132405553D

 59 62  0  0  0  0            999 V2000
   -4.9092   -9.3722    2.6642 C   0  0
   -5.7618   -9.3654    1.4130 C   0  0
   -5.7792  -10.4354    0.6019 C   0  0
   -4.9626  -11.6271    0.9433 C   0  0
   -4.2423  -11.5775    2.0497 C   0  0
   -4.2061  -10.4695    2.9025 C   0  0
   -2.4393  -11.8041    3.5762 C   0  0  1  0  0  0
   -3.3214  -10.7087    3.9632 O   0  0
   -3.4483  -12.6090    2.6743 C   0  0  1  0  0  0
    0.0480   -9.8906    1.1530 C   0  0
   -1.2285  -10.4530    1.7228 C   0  0
   -1.2053  -11.1712    2.8566 C   0  0
    0.0695  -11.4051    3.5172 C   0  0
    1.2046  -10.9207    3.0312 C   0  0
    1.2032  -10.1127    1.7791 C   0  0
    0.0999   -9.1082   -0.0433 O   0  0
    2.3918   -9.5467    1.2040 O   0  0
   -4.4543  -13.2989    3.6237 C   0  0
   -4.8059   -8.2838    3.5770 O   0  0
   -6.6483  -10.3956   -0.5935 C   0  0
   -6.7534  -11.4352   -1.4300 C   0  0
   -7.6438  -11.4006   -2.6227 C   0  0
   -5.5924   -7.1343    3.2336 C   0  0
   -1.1637   -8.8834   -0.6905 C   0  0
    3.6019   -9.8204    1.9342 C   0  0
    4.7767   -9.1424    1.3098 C   0  0
    7.1481   -9.0175    0.8418 C   0  0
    5.9882   -9.6784    1.4380 C   0  0
    4.6017   -7.8923    0.5730 C   0  0
    5.6577   -7.2882    0.0304 C   0  0
    6.9919   -7.8778    0.1715 C   0  0
    8.3625   -7.0946   -0.5299 Cl  0  0
   -7.6898  -12.3973   -3.3524 O   0  0
   -8.4441  -10.2859   -2.9537 O   0  0
   -6.3578   -8.5286    1.1588 H   0  0
   -4.9805  -12.5020    0.3479 H   0  0
   -2.0336  -12.4206    4.3895 H   0  0
   -3.0170  -13.3950    2.0396 H   0  0
   -2.1424  -10.2819    1.2434 H   0  0
    0.0911  -11.9758    4.4100 H   0  0
    2.0991  -11.1234    3.5571 H   0  0
   -5.2356  -13.7919    3.0288 H   0  0
   -4.9173  -12.5624    4.2933 H   0  0
   -3.9239  -14.0496    4.2254 H   0  0
   -7.2096   -9.5212   -0.7807 H   0  0
   -6.1972  -12.3140   -1.2456 H   0  0
   -5.4456   -6.3532    3.9930 H   0  0
   -6.6563   -7.4120    3.1975 H   0  0
   -5.2775   -6.7511    2.2514 H   0  0
   -1.0070   -8.2748   -1.5926 H   0  0
   -1.8410   -8.3515   -0.0050 H   0  0
   -1.6105   -9.8480   -0.9747 H   0  0
    3.4860   -9.4091    2.9469 H   0  0
    3.7984  -10.8987    2.0234 H   0  0
    8.1136   -9.4446    0.9453 H   0  0
    6.1118  -10.5838    1.9763 H   0  0
    3.6360   -7.4661    0.4727 H   0  0
    5.5334   -6.3804   -0.5031 H   0  0
   -8.3386   -9.5551   -2.3122 H   0  0
  1  2  1  0
  2  3  2  0
  3  4  1  0
  4  5  2  0
  5  6  1  0
  1  6  2  0
  7  8  1  0
  7  9  1  0
  8  6  1  0
  9  5  1  0
 10 11  1  0
 11 12  2  0
 12 13  1  0
 13 14  2  0
 14 15  1  0
 10 15  2  0
  7 12  1  0
 10 16  1  0
 15 17  1  0
  9 18  1  0
  1 19  1  0
  3 20  1  0
 21 22  1  0
 20 21  2  0
 19 23  1  0
 16 24  1  0
 17 25  1  0
 25 26  1  0
 27 28  1  0
 29 30  2  0
 30 31  1  0
 27 31  2  0
 28 26  2  0
 26 29  1  0
 31 32  1  0
 22 33  2  0
 22 34  1  0
  2 35  1  0
  4 36  1  0
  7 37  1  0
  9 38  1  0
 11 39  1  0
 13 40  1  0
 14 41  1  0
 18 42  1  0
 18 43  1  0
 18 44  1  0
 20 45  1  0
 21 46  1  0
 23 47  1  0
 23 48  1  0
 23 49  1  0
 24 50  1  0
 24 51  1  0
 24 52  1  0
 25 53  1  0
 25 54  1  0
 27 55  1  0
 28 56  1  0
 29 57  1  0
 30 58  1  0
 34 59  1  0
M  END
> <Name>
DJA2020a_8

> <Clean Energy>
70.7524

$$$$
DJA2020a_9
  SciTegic12132405553D

 60 63  0  0  0  0            999 V2000
    1.6611   -0.1791   -1.0923 C   0  0
    0.7298   -0.7726   -2.1300 C   0  0
    1.0596   -1.9114   -2.7569 C   0  0
    2.3541   -2.5689   -2.4492 C   0  0
    3.1273   -2.0026   -1.5371 C   0  0
    2.7881   -0.8347   -0.8532 C   0  0
    5.0098   -1.2100   -0.3060 C   0  0  1  0  0  0
    3.7971   -0.4996    0.0634 O   0  0
    4.3537   -2.4882   -0.9583 C   0  0  1  0  0  0
    6.3121    1.2675   -3.1071 C   0  0
    5.4111    0.2839   -2.3766 C   0  0
    5.8061   -0.2349   -1.2052 C   0  0
    7.0968    0.1399   -0.6604 C   0  0
    7.8971    0.9922   -1.2797 C   0  0
    7.4914    1.6029   -2.5760 C   0  0
    5.9656    1.8844   -4.3480 O   0  0
    8.3157    2.5546   -3.2866 O   0  0
    3.8357   -3.3663    0.2012 C   0  0
    1.3999    1.0147   -0.3622 O   0  0
    0.0809   -2.5086   -3.6937 C   0  0
    0.2696   -3.7106   -4.2435 C   0  0
   -0.7890   -4.3065   -5.1344 C   0  0
    0.1610    1.6595   -0.6881 C   0  0
    4.6869    1.5147   -4.8832 C   0  0
    9.5621    2.8648   -2.6218 C   0  0
   10.3626    3.8906   -3.3568 C   0  0
   12.4952    4.8577   -3.9701 C   0  0
   11.6908    3.8572   -3.2734 C   0  0
    9.7034    4.9302   -4.1445 C   0  0
   10.4356    5.8451   -4.7793 C   0  0
   11.8988    5.8066   -4.6879 C   0  0
   12.8500    6.9921   -5.5090 Cl  0  0
   -0.9824   -3.4823   -6.2892 O   0  0
   -0.2035   -0.3245   -2.3508 H   0  0
    2.6341   -3.4829   -2.9038 H   0  0
    5.6952   -1.4824    0.5070 H   0  0
    5.0109   -3.1287   -1.5626 H   0  0
    4.4724    0.0156   -2.7698 H   0  0
    7.4064   -0.2782    0.2627 H   0  0
    8.8219    1.2219   -0.8233 H   0  0
    3.2849   -4.2239   -0.2106 H   0  0
    3.1712   -2.7858    0.8535 H   0  0
    4.6913   -3.7284    0.7870 H   0  0
   -0.8157   -1.9823   -3.9050 H   0  0
    1.1389   -4.2714   -4.0263 H   0  0
   -0.5048   -5.3254   -5.4347 H   0  0
   -1.7447   -4.3196   -4.5868 H   0  0
    0.0525    2.5675   -0.0785 H   0  0
   -0.6767    0.9779   -0.4793 H   0  0
    0.1569    1.9337   -1.7539 H   0  0
    4.5236    2.0469   -5.8319 H   0  0
    3.8946    1.7891   -4.1706 H   0  0
    4.6613    0.4305   -5.0644 H   0  0
    9.3165    3.2903   -1.6378 H   0  0
   10.1765    1.9672   -2.4621 H   0  0
   13.5537    4.8291   -3.9019 H   0  0
   12.1650    3.1041   -2.6962 H   0  0
    8.6456    4.9578   -4.2080 H   0  0
    9.9609    6.6020   -5.3498 H   0  0
   -1.2727   -2.5795   -6.0162 H   0  0
  1  2  1  0
  2  3  2  0
  3  4  1  0
  4  5  2  0
  5  6  1  0
  1  6  2  0
  7  8  1  0
  7  9  1  0
  8  6  1  0
  9  5  1  0
 10 11  1  0
 11 12  2  0
 12 13  1  0
 13 14  2  0
 14 15  1  0
 10 15  2  0
  7 12  1  0
 10 16  1  0
 15 17  1  0
  9 18  1  0
  1 19  1  0
  3 20  1  0
 21 22  1  0
 20 21  2  0
 19 23  1  0
 16 24  1  0
 17 25  1  0
 25 26  1  0
 27 28  1  0
 29 30  2  0
 30 31  1  0
 27 31  2  0
 28 26  2  0
 26 29  1  0
 31 32  1  0
 22 33  1  0
  2 34  1  0
  4 35  1  0
  7 36  1  0
  9 37  1  0
 11 38  1  0
 13 39  1  0
 14 40  1  0
 18 41  1  0
 18 42  1  0
 18 43  1  0
 20 44  1  0
 21 45  1  0
 22 46  1  0
 22 47  1  0
 23 48  1  0
 23 49  1  0
 23 50  1  0
 24 51  1  0
 24 52  1  0
 24 53  1  0
 25 54  1  0
 25 55  1  0
 27 56  1  0
 28 57  1  0
 29 58  1  0
 30 59  1  0
 33 60  1  0
M  END
> <Name>
DJA2020a_9

> <Clean Energy>
83.7577

$$$$
MCF2021_1a (R)
  SciTegic12132405553D

 44 47  0  0  0  0            999 V2000
    2.0078    1.1167   -2.1140 C   0  0
    1.4040    0.6785   -3.2140 C   0  0
    1.9313   -0.4794   -3.9209 C   0  0
    3.0173   -1.1024   -3.4700 C   0  0
    3.7025   -0.6266   -2.2453 C   0  0
    3.2031    0.4407   -1.6070 C   0  0
    5.4732   -2.5245   -2.4841 C   0  0
    4.9384   -1.3436   -1.7407 C   0  0
    5.5904   -0.9322   -0.6306 C   0  0
    6.7926   -1.6548   -0.1525 C   0  0
    7.2046   -2.7046   -0.8438 C   0  0
    6.5532   -3.1203   -2.0066 C   0  0
    7.9430   -4.7753   -1.2525 C   0  0  1  0  0  0
    7.3251   -4.2202   -2.5704 C   0  0
    8.2499   -3.5632   -0.5487 O   0  0
    6.6904   -7.6009    2.7415 C   0  0
    6.2431   -6.9537    1.4176 C   0  0
    7.3363   -6.1439    0.8605 N   0  0
    7.6976   -5.0887    1.8452 C   0  0
    8.1459   -5.7403    3.1644 C   0  0
    7.0475   -6.5515    3.7028 N   0  0
    6.8507   -5.5926   -0.4449 C   0  0
    1.6216    1.9605   -1.6008 H   0  0
    0.5383    1.1725   -3.5765 H   0  0
    1.4484   -0.8279   -4.7983 H   0  0
    3.3847   -1.9410   -3.9966 H   0  0
    3.6633    0.8085   -0.7319 H   0  0
    5.0282   -2.8629   -3.3803 H   0  0
    5.2461   -0.0990   -0.0828 H   0  0
    7.2898   -1.3586    0.7355 H   0  0
    8.7996   -5.4360   -1.4428 H   0  0
    8.1343   -3.7374   -3.1350 H   0  0
    6.8080   -4.9417   -3.2176 H   0  0
    5.8684   -8.2056    3.1488 H   0  0
    7.5637   -8.2432    2.5586 H   0  0
    5.9760   -7.7425    0.7011 H   0  0
    5.3698   -6.3109    1.5974 H   0  0
    8.5184   -4.4767    1.4587 H   0  0
    6.8214   -4.4517    2.0325 H   0  0
    9.0200   -6.3809    2.9793 H   0  0
    8.4108   -4.9567    3.8876 H   0  0
    6.2298   -5.9497    3.8703 H   0  0
    6.5611   -6.4475   -1.0701 H   0  0
    5.9619   -4.9781   -0.2527 H   0  0
  1  2  2  0
  2  3  1  0
  3  4  2  0
  4  5  1  0
  5  6  2  0
  1  6  1  0
  7  8  1  0
  8  9  2  0
  9 10  1  0
 10 11  2  0
 11 12  1  0
  7 12  2  0
  5  8  1  0
 13 14  1  0
 13 15  1  0
 14 12  1  0
 11 15  1  0
 16 17  1  0
 17 18  1  0
 18 19  1  0
 19 20  1  0
 20 21  1  0
 16 21  1  0
 22 18  1  0
 13 22  1  0
  1 23  1  0
  2 24  1  0
  3 25  1  0
  4 26  1  0
  6 27  1  0
  7 28  1  0
  9 29  1  0
 10 30  1  0
 13 31  1  0
 14 32  1  0
 14 33  1  0
 16 34  1  0
 16 35  1  0
 17 36  1  0
 17 37  1  0
 19 38  1  0
 19 39  1  0
 20 40  1  0
 20 41  1  0
 21 42  1  0
 22 43  1  0
 22 44  1  0
M  END
> <Name>
MCF2021_1a (R)

> <Clean Energy>
38.8769989013672

$$$$
MCF2021_1b (R)
  SciTegic12132405553D

 47 50  0  0  0  0            999 V2000
   -1.3919   -1.7004   -7.3231 C   0  0
   -1.7541   -0.5064   -7.7812 C   0  0
   -1.0636    0.6893   -7.3206 C   0  0
   -0.0695    0.5922   -6.4412 C   0  0
    0.3464   -0.7314   -5.9204 C   0  0
   -0.3002   -1.8215   -6.3555 C   0  0
    2.1702    0.4080   -4.4474 C   0  0
    1.4791   -0.8303   -4.9185 C   0  0
    1.8788   -2.0205   -4.4186 C   0  0
    2.9935   -2.0918   -3.4444 C   0  0
    3.5771   -0.9614   -3.0813 C   0  0
    3.1533    0.2746   -3.5727 C   0  0
    5.2174    0.4821   -2.6045 C   0  0  1  0  0  0
    3.9255    1.3042   -2.8901 C   0  0
    4.6697   -0.7950   -2.2469 O   0  0
    8.4048   -2.6478   -3.3160 C   0  0
    7.0694   -1.8942   -3.4276 C   0  0
    7.3257   -0.4682   -3.7675 N   0  0
    8.0447   -0.4113   -5.0489 C   0  0
    9.3772   -1.1737   -4.9356 C   0  0
    9.1127   -2.5734   -4.5963 N   0  0
    6.0724    0.3360   -3.9312 C   0  0
   10.3822   -3.2864   -4.4836 C   0  0
   -1.8966   -2.5700   -7.6602 H   0  0
   -2.5459   -0.4249   -8.4820 H   0  0
   -1.3535    1.6412   -7.6871 H   0  0
    0.4195    1.4711   -6.1191 H   0  0
   -0.0325   -2.7808   -6.0075 H   0  0
    1.8710    1.3673   -4.7729 H   0  0
    1.4109   -2.9158   -4.7229 H   0  0
    3.3342   -3.0241   -3.0725 H   0  0
    5.8466    0.9534   -1.8375 H   0  0
    3.4116    1.4525   -1.9306 H   0  0
    4.0555    2.2746   -3.3884 H   0  0
    9.0211   -2.1893   -2.5298 H   0  0
    8.2130   -3.7000   -3.0656 H   0  0
    6.4568   -2.3516   -4.2174 H   0  0
    6.5444   -1.9660   -2.4702 H   0  0
    7.4246   -0.8651   -5.8347 H   0  0
    8.2485    0.6377   -5.3032 H   0  0
    9.9108   -1.1255   -5.8946 H   0  0
    9.9944   -0.7179   -4.1486 H   0  0
    6.3738    1.3479   -4.2328 H   0  0
    5.4755   -0.1100   -4.7370 H   0  0
   10.1894   -4.3376   -4.2275 H   0  0
   10.9905   -2.8214   -3.6951 H   0  0
   10.9180   -3.2322   -5.4416 H   0  0
  1  2  2  0
  2  3  1  0
  3  4  2  0
  4  5  1  0
  5  6  2  0
  1  6  1  0
  7  8  1  0
  8  9  2  0
  9 10  1  0
 10 11  2  0
 11 12  1  0
  7 12  2  0
  5  8  1  0
 13 14  1  0
 13 15  1  0
 14 12  1  0
 11 15  1  0
 16 17  1  0
 17 18  1  0
 18 19  1  0
 19 20  1  0
 20 21  1  0
 16 21  1  0
 22 18  1  0
 13 22  1  0
 21 23  1  0
  1 24  1  0
  2 25  1  0
  3 26  1  0
  4 27  1  0
  6 28  1  0
  7 29  1  0
  9 30  1  0
 10 31  1  0
 13 32  1  0
 14 33  1  0
 14 34  1  0
 16 35  1  0
 16 36  1  0
 17 37  1  0
 17 38  1  0
 19 39  1  0
 19 40  1  0
 20 41  1  0
 20 42  1  0
 22 43  1  0
 22 44  1  0
 23 45  1  0
 23 46  1  0
 23 47  1  0
M  END
> <Name>
MCF2021_1b (R)

> <Clean Energy>
37.3595

$$$$
MCF2021_1c (R)
  SciTegic12132405553D

 54 58  0  0  0  0            999 V2000
  -10.1771   -2.6513   -1.6145 C   0  0
  -10.4904   -1.5441   -2.2800 C   0  0
   -9.9873   -0.2561   -1.8261 C   0  0
   -9.2139   -0.1817   -0.7458 C   0  0
   -8.8557   -1.4067    0.0083 C   0  0
   -9.3274   -2.5840   -0.4240 C   0  0
   -7.4828    0.0221    1.6992 C   0  0
   -7.9776   -1.3095    1.2398 C   0  0
   -7.6393   -2.4040    1.9569 C   0  0
   -6.7784   -2.2808    3.1590 C   0  0
   -6.3591   -1.0742    3.5043 C   0  0
   -6.7241    0.0625    2.7815 C   0  0
   -4.9652    0.5471    4.1659 C   0  0  1  0  0  0
   -6.1961    1.2176    3.4880 C   0  0
   -5.5053   -0.7283    4.5411 O   0  0
   -1.5184   -2.3183    4.7068 C   0  0
   -2.8163   -1.7238    4.1348 C   0  0
   -2.5810   -0.3207    3.6867 N   0  0
   -1.5604   -0.3431    2.6244 C   0  0
   -0.2383   -0.9177    3.1656 C   0  0
   -0.4809   -2.2488    3.6889 N   0  0
   -3.8020    0.3335    3.1127 C   0  0
    0.3308   -3.4247    3.2762 C   0  0
    1.4258   -3.2857    2.2642 C   0  0
    0.1195   -4.6470    3.7962 C   0  0
    0.9353   -5.7905    3.3819 C   0  0
    1.9015   -5.6416    2.4836 C   0  0
    2.1556   -4.3377    1.9025 C   0  0
  -10.5453   -3.5885   -1.9474 H   0  0
  -11.1067   -1.5992   -3.1413 H   0  0
  -10.2380    0.6265   -2.3581 H   0  0
   -8.8589    0.7621   -0.4321 H   0  0
   -9.0947   -3.4772    0.0869 H   0  0
   -7.7512    0.9143    1.2017 H   0  0
   -7.9756   -3.3613    1.6671 H   0  0
   -6.4846   -3.1375    3.7098 H   0  0
   -4.5724    1.1532    4.9934 H   0  0
   -6.9327    1.4231    4.2765 H   0  0
   -6.0083    2.1373    2.9171 H   0  0
   -1.2189   -1.6910    5.5575 H   0  0
   -1.6988   -3.3374    5.0440 H   0  0
   -3.1465   -2.3221    3.2736 H   0  0
   -3.5825   -1.7534    4.9147 H   0  0
   -1.9239   -0.9644    1.7936 H   0  0
   -1.3831    0.6798    2.2656 H   0  0
    0.5111   -0.9146    2.3787 H   0  0
    0.0854   -0.2699    3.9916 H   0  0
   -3.4991    1.3293    2.7629 H   0  0
   -4.1493   -0.2539    2.2527 H   0  0
    1.6362   -2.3516    1.8234 H   0  0
   -0.6335   -4.8089    4.5120 H   0  0
    0.7535   -6.7461    3.8043 H   0  0
    2.4873   -6.4760    2.1912 H   0  0
    2.9280   -4.2217    1.1852 H   0  0
  1  2  2  0
  2  3  1  0
  3  4  2  0
  4  5  1  0
  5  6  2  0
  1  6  1  0
  7  8  1  0
  8  9  2  0
  9 10  1  0
 10 11  2  0
 11 12  1  0
  7 12  2  0
  5  8  1  0
 13 14  1  0
 13 15  1  0
 14 12  1  0
 11 15  1  0
 16 17  1  0
 17 18  1  0
 18 19  1  0
 19 20  1  0
 20 21  1  0
 16 21  1  0
 22 18  1  0
 13 22  1  0
 21 23  1  0
 25 26  1  0
 26 27  2  0
 27 28  1  0
 24 28  2  0
 24 23  1  0
 23 25  2  0
  1 29  1  0
  2 30  1  0
  3 31  1  0
  4 32  1  0
  6 33  1  0
  7 34  1  0
  9 35  1  0
 10 36  1  0
 13 37  1  0
 14 38  1  0
 14 39  1  0
 16 40  1  0
 16 41  1  0
 17 42  1  0
 17 43  1  0
 19 44  1  0
 19 45  1  0
 20 46  1  0
 20 47  1  0
 22 48  1  0
 22 49  1  0
 24 50  1  0
 25 51  1  0
 26 52  1  0
 27 53  1  0
 28 54  1  0
M  END
> <Name>
MCF2021_1c (R)

> <Clean Energy>
57.2598

$$$$
MCF2021_1d (R)
  SciTegic12132405553D

 56 59  0  0  0  0            999 V2000
  -10.4655    3.9193   -0.1338 C   0  0
   -9.7809    2.9451   -1.1080 C   0  0
  -10.2244    3.3245   -2.5278 C   0  0
   -7.6625    4.4803   -1.2242 C   0  0
   -8.2365    3.1212   -1.0040 C   0  0
   -7.3892    2.1041   -0.7071 C   0  0
   -5.9275    2.3478   -0.6287 C   0  0
   -5.4839    3.5740   -0.8515 C   0  0
   -6.3526    4.6270   -1.1323 C   0  0
   -4.2084    5.2203   -1.6697 C   0  0  1  0  0  0
   -5.5580    5.8421   -1.2069 C   0  0
   -4.1695    4.0134   -0.8945 O   0  0
   -1.4274    2.3267   -3.7450 C   0  0
   -2.7239    2.8962   -3.1450 C   0  0
   -3.0157    4.2338   -3.7379 N   0  0
   -3.1941    4.0671   -5.1912 C   0  0
   -1.9066    3.5119   -5.8266 C   0  0
   -1.5784    2.2514   -5.1900 N   0  0
   -4.2726    4.8553   -3.2095 C   0  0
   -1.3521    1.0035   -5.9667 C   0  0
   -1.4778    0.9937   -7.4590 C   0  0
   -1.0233   -0.1536   -5.3652 C   0  0
   -0.7985   -1.3700   -6.1494 C   0  0
   -0.9149   -1.3530   -7.4719 C   0  0
   -1.2686   -0.1224   -8.1521 C   0  0
  -10.2516    1.5113   -0.7975 C   0  0
  -11.5555    3.8202   -0.2307 H   0  0
  -10.1727    4.9511   -0.3685 H   0  0
  -10.1642    3.6764    0.8944 H   0  0
   -9.7498    2.6458   -3.2499 H   0  0
   -9.9282    4.3593   -2.7460 H   0  0
  -11.3170    3.2346   -2.6015 H   0  0
   -8.2856    5.3158   -1.4185 H   0  0
   -7.7393    1.1257   -0.5369 H   0  0
   -5.2537    1.5547   -0.4280 H   0  0
   -3.3648    5.9061   -1.5134 H   0  0
   -5.4320    6.1582   -0.1625 H   0  0
   -5.9452    6.6833   -1.7978 H   0  0
   -0.6204    3.0344   -3.5107 H   0  0
   -1.2113    1.3569   -3.3004 H   0  0
   -3.5599    2.2177   -3.3674 H   0  0
   -2.5982    2.9769   -2.0614 H   0  0
   -4.0268    3.3726   -5.3716 H   0  0
   -3.4248    5.0403   -5.6453 H   0  0
   -2.0429    3.4093   -6.8997 H   0  0
   -1.1030    4.2316   -5.6186 H   0  0
   -4.4208    5.7963   -3.7556 H   0  0
   -5.1156    4.1852   -3.4229 H   0  0
   -1.7330    1.8716   -7.9836 H   0  0
   -0.9189   -0.2110   -4.3205 H   0  0
   -0.5393   -2.2725   -5.6565 H   0  0
   -0.7490   -2.2392   -8.0305 H   0  0
   -1.3608   -0.1118   -9.2086 H   0  0
   -9.7901    0.8108   -1.5078 H   0  0
  -11.3452    1.4614   -0.8918 H   0  0
   -9.9594    1.2435    0.2281 H   0  0
  1  2  1  0
  4  5  1  0
  5  6  2  0
  6  7  1  0
  7  8  2  0
  8  9  1  0
  4  9  2  0
  2  5  1  0
 10 11  1  0
 10 12  1  0
 11  9  1  0
  8 12  1  0
 13 14  1  0
 14 15  1  0
 15 16  1  0
 16 17  1  0
 17 18  1  0
 13 18  1  0
 19 15  1  0
 10 19  1  0
 18 20  1  0
 22 23  1  0
 23 24  2  0
 24 25  1  0
 21 25  2  0
 21 20  1  0
 20 22  2  0
  2  3  1  0
  2 26  1  0
  1 27  1  0
  1 28  1  0
  1 29  1  0
  3 30  1  0
  3 31  1  0
  3 32  1  0
  4 33  1  0
  6 34  1  0
  7 35  1  0
 10 36  1  0
 11 37  1  0
 11 38  1  0
 13 39  1  0
 13 40  1  0
 14 41  1  0
 14 42  1  0
 16 43  1  0
 16 44  1  0
 17 45  1  0
 17 46  1  0
 19 47  1  0
 19 48  1  0
 21 49  1  0
 22 50  1  0
 23 51  1  0
 24 52  1  0
 25 53  1  0
 26 54  1  0
 26 55  1  0
 26 56  1  0
M  END
> <Name>
MCF2021_1d (R)

> <Clean Energy>
68.2965

$$$$
MCF2021_1e (R)
  SciTegic12132405553D

 47 50  0  0  0  0            999 V2000
   -6.1874    0.2655   -5.4137 C   0  0
   -6.7682   -1.0242   -5.8437 C   0  0
   -6.5460   -2.1335   -5.1196 C   0  0
   -5.6983   -2.0699   -3.9050 C   0  0
   -5.1842   -0.8946   -3.5718 C   0  0
   -5.4439    0.2646   -4.3183 C   0  0
   -3.6626    0.6114   -2.9224 C   0  0  1  0  0  0
   -4.8255    1.3824   -3.6177 C   0  0
   -4.3164   -0.6065   -2.5328 O   0  0
   -0.4928   -2.5755   -2.4287 C   0  0
   -1.7387   -1.8491   -2.9566 C   0  0
   -1.3684   -0.4843   -3.4134 N   0  0
   -0.3677   -0.5997   -4.4817 C   0  0
    0.8800   -1.3333   -3.9586 C   0  0
    0.5154   -2.6795   -3.5131 N   0  0
   -2.5239    0.2852   -3.9763 C   0  0
    1.7465   -3.3515   -3.0381 C   0  0
    1.4682   -4.7757   -2.6494 C   0  0
    0.7551   -7.0258   -3.1852 C   0  0
    1.0238   -5.6385   -3.5613 C   0  0
    1.6930   -5.2161   -1.2716 C   0  0
    1.4484   -6.4788   -0.9291 C   0  0
    0.9568   -7.4268   -1.9312 C   0  0
   -6.3830    1.1621   -5.9442 H   0  0
   -7.3714   -1.0707   -6.7146 H   0  0
   -6.9678   -3.0577   -5.4234 H   0  0
   -5.4842   -2.9406   -3.3396 H   0  0
   -3.2179    1.1875   -2.0997 H   0  0
   -5.5472    1.6616   -2.8381 H   0  0
   -4.5516    2.2740   -4.1982 H   0  0
   -0.0677   -2.0090   -1.5886 H   0  0
   -0.7840   -3.5761   -2.0857 H   0  0
   -2.1605   -2.4135   -3.8003 H   0  0
   -2.4770   -1.7897   -2.1513 H   0  0
   -0.7979   -1.1578   -5.3252 H   0  0
   -0.0809    0.4064   -4.8166 H   0  0
    1.6230   -1.4081   -4.7642 H   0  0
    1.3086   -0.7738   -3.1154 H   0  0
   -2.1304    1.2466   -4.3319 H   0  0
   -2.9270   -0.2702   -4.8326 H   0  0
    2.4321   -3.3595   -3.8961 H   0  0
    2.1790   -2.7949   -2.1957 H   0  0
    0.3998   -7.7126   -3.9108 H   0  0
    0.8639   -5.3175   -4.5592 H   0  0
    2.0486   -4.5282   -0.5475 H   0  0
    1.6097   -6.7982    0.0691 H   0  0
    0.7619   -8.4330   -1.6586 H   0  0
  1  2  1  0
  2  3  2  0
  3  4  1  0
  4  5  2  0
  5  6  1  0
  1  6  2  0
  7  8  1  0
  7  9  1  0
  8  6  1  0
  5  9  1  0
 10 11  1  0
 11 12  1  0
 12 13  1  0
 13 14  1  0
 14 15  1  0
 10 15  1  0
 16 12  1  0
  7 16  1  0
 15 17  1  0
 17 18  1  0
 19 20  1  0
 21 22  2  0
 22 23  1  0
 19 23  2  0
 20 18  2  0
 18 21  1  0
  1 24  1  0
  2 25  1  0
  3 26  1  0
  4 27  1  0
  7 28  1  0
  8 29  1  0
  8 30  1  0
 10 31  1  0
 10 32  1  0
 11 33  1  0
 11 34  1  0
 13 35  1  0
 13 36  1  0
 14 37  1  0
 14 38  1  0
 16 39  1  0
 16 40  1  0
 17 41  1  0
 17 42  1  0
 19 43  1  0
 20 44  1  0
 21 45  1  0
 22 46  1  0
 23 47  1  0
M  END
> <Name>
MCF2021_1e (R)

> <Clean Energy>
48.4157

$$$$
MCF2021_1f (R)
  SciTegic12132405553D

 45 47  0  0  0  0            999 V2000
   -6.6767    0.5394   -6.7740 C   0  0
   -7.4319   -0.7484   -6.9977 C   0  0
   -7.1555   -1.8046   -6.2146 C   0  0
   -6.1158   -1.7138   -5.1618 C   0  0
   -5.4735   -0.5647   -5.0182 C   0  0
   -5.7659    0.5491   -5.8140 C   0  0
   -3.7694    0.8596   -4.7293 C   0  0  1  0  0  0
   -4.9699    1.6588   -5.3185 C   0  0
   -4.4350   -0.2703   -4.1481 O   0  0
   -0.7410   -2.4500   -4.2744 C   0  0
   -2.0064   -1.7209   -4.7552 C   0  0
   -1.6301   -0.4241   -5.3803 N   0  0
   -0.7456   -0.6912   -6.5230 C   0  0
    0.5222   -1.4201   -6.0376 C   0  0
    0.1487   -2.7107   -5.4083 N   0  0
   -2.8056    0.3627   -5.8830 C   0  0
    1.3470   -3.4095   -4.8871 C   0  0
    2.3008   -3.8063   -5.9865 C   0  0
   -8.4465   -0.9068   -7.9889 O   0  0
   -8.7109    0.2620   -8.7809 C   0  0
    1.8599   -4.4710   -7.0535 C   0  0
   -6.8738    1.4211   -7.3261 H   0  0
   -7.6823   -2.7139   -6.3555 H   0  0
   -5.8754   -2.5514   -4.5583 H   0  0
   -3.1787    1.4669   -4.0305 H   0  0
   -5.5459    2.0549   -4.4714 H   0  0
   -4.7297    2.4791   -6.0088 H   0  0
   -0.2178   -1.8243   -3.5382 H   0  0
   -1.0233   -3.4044   -3.8095 H   0  0
   -2.5321   -2.3429   -5.4939 H   0  0
   -2.6568   -1.5499   -3.8931 H   0  0
   -1.2746   -1.3107   -7.2608 H   0  0
   -0.4560    0.2623   -6.9849 H   0  0
    1.1836   -1.5965   -6.8945 H   0  0
    1.0394   -0.7922   -5.2988 H   0  0
   -2.4068    1.2601   -6.3743 H   0  0
   -3.3486   -0.2372   -6.6254 H   0  0
    1.8606   -2.7848   -4.1431 H   0  0
    0.9867   -4.3312   -4.4097 H   0  0
    3.3340   -3.5846   -5.8929 H   0  0
   -9.5041    0.0365   -9.5079 H   0  0
   -7.7986    0.5599   -9.3180 H   0  0
   -9.0401    1.0844   -8.1276 H   0  0
    0.8309   -4.7133   -7.1380 H   0  0
    2.5381   -4.7569   -7.8175 H   0  0
  1  2  1  0
  2  3  2  0
  3  4  1  0
  4  5  2  0
  5  6  1  0
  1  6  2  0
  7  8  1  0
  7  9  1  0
  8  6  1  0
  5  9  1  0
 10 11  1  0
 11 12  1  0
 12 13  1  0
 13 14  1  0
 14 15  1  0
 10 15  1  0
 16 12  1  0
  7 16  1  0
 15 17  1  0
 17 18  1  0
  2 19  1  0
 19 20  1  0
 18 21  2  0
  1 22  1  0
  3 23  1  0
  4 24  1  0
  7 25  1  0
  8 26  1  0
  8 27  1  0
 10 28  1  0
 10 29  1  0
 11 30  1  0
 11 31  1  0
 13 32  1  0
 13 33  1  0
 14 34  1  0
 14 35  1  0
 16 36  1  0
 16 37  1  0
 17 38  1  0
 17 39  1  0
 18 40  1  0
 20 41  1  0
 20 42  1  0
 20 43  1  0
 21 44  1  0
 21 45  1  0
M  END
> <Name>
MCF2021_1f (R)

> <Clean Energy>
50.1847

$$$$
MCF2021_1g (R)
  SciTegic12132405553D

 53 55  0  0  0  0            999 V2000
   -9.6326    2.4857   -4.3993 C   0  0
   -8.8990    1.2641   -4.9828 C   0  0
   -8.6703    1.4978   -6.4773 C   0  0
   -6.8028    2.1835   -3.6114 C   0  0
   -7.5064    1.0514   -4.3107 C   0  0
   -6.8962   -0.1558   -4.3457 C   0  0
   -5.5698   -0.3489   -3.7164 C   0  0
   -4.9992    0.6888   -3.1284 C   0  0
   -5.6209    1.9365   -3.0728 C   0  0
   -3.3956    2.1434   -2.5751 C   0  0  1  0  0  0
   -4.7711    2.8134   -2.2788 C   0  0
   -3.7449    0.7533   -2.5453 O   0  0
   -0.2931   -0.1393   -4.9444 C   0  0
   -1.6575    0.4168   -4.5081 C   0  0
   -1.5951    1.8996   -4.4218 N   0  0
   -1.2350    2.4346   -5.7416 C   0  0
    0.1304    1.8759   -6.1796 C   0  0
    0.0587    0.3944   -6.2619 N   0  0
   -2.9010    2.5269   -4.0330 C   0  0
    1.3659   -0.1779   -6.6535 C   0  0
    1.7642    0.2272   -8.0515 C   0  0
   -9.8007    0.0193   -4.8245 C   0  0
    0.8982    0.1073   -9.0576 C   0  0
  -10.5948    2.6081   -4.9154 H   0  0
   -9.0269    3.3900   -4.5436 H   0  0
   -9.8093    2.3262   -3.3261 H   0  0
   -8.1655    0.6238   -6.9114 H   0  0
   -8.0438    2.3906   -6.6133 H   0  0
   -9.6388    1.6481   -6.9741 H   0  0
   -7.2313    3.1446   -3.5233 H   0  0
   -7.3477   -0.9758   -4.8345 H   0  0
   -5.0762   -1.2856   -3.7637 H   0  0
   -2.6236    2.4489   -1.8560 H   0  0
   -5.0291    2.5880   -1.2352 H   0  0
   -4.8408    3.8971   -2.4461 H   0  0
    0.4745    0.1522   -4.2140 H   0  0
   -0.3480   -1.2348   -5.0012 H   0  0
   -2.4216    0.1267   -5.2432 H   0  0
   -1.9110   -0.0061   -3.5315 H   0  0
   -2.0035    2.1480   -6.4732 H   0  0
   -1.1753    3.5297   -5.6830 H   0  0
    0.3893    2.2960   -7.1589 H   0  0
    0.8946    2.1629   -5.4441 H   0  0
   -2.7557    3.6152   -4.0491 H   0  0
   -3.6533    2.2597   -4.7862 H   0  0
    2.1446    0.1059   -5.9322 H   0  0
    1.2410   -1.2695   -6.6494 H   0  0
    2.7479    0.5752   -8.2403 H   0  0
   -9.3168   -0.8567   -5.2754 H   0  0
  -10.7583    0.2027   -5.3312 H   0  0
   -9.9801   -0.1674   -3.7568 H   0  0
   -0.0793   -0.2626   -8.8730 H   0  0
    1.1855    0.3821  -10.0408 H   0  0
  1  2  1  0
  4  5  1  0
  5  6  2  0
  6  7  1  0
  7  8  2  0
  8  9  1  0
  4  9  2  0
  2  5  1  0
 10 11  1  0
 10 12  1  0
 11  9  1  0
  8 12  1  0
 13 14  1  0
 14 15  1  0
 15 16  1  0
 16 17  1  0
 17 18  1  0
 13 18  1  0
 19 15  1  0
 10 19  1  0
 18 20  1  0
  2  3  1  0
  2 22  1  0
 20 21  1  0
 21 23  2  0
  1 24  1  0
  1 25  1  0
  1 26  1  0
  3 27  1  0
  3 28  1  0
  3 29  1  0
  4 30  1  0
  6 31  1  0
  7 32  1  0
 10 33  1  0
 11 34  1  0
 11 35  1  0
 13 36  1  0
 13 37  1  0
 14 38  1  0
 14 39  1  0
 16 40  1  0
 16 41  1  0
 17 42  1  0
 17 43  1  0
 19 44  1  0
 19 45  1  0
 20 46  1  0
 20 47  1  0
 21 48  1  0
 22 49  1  0
 22 50  1  0
 22 51  1  0
 23 52  1  0
 23 53  1  0
M  END
> <Name>
MCF2021_1g (R)

> <Clean Energy>
58.9796

$$$$
MCF2021_1h (R)
  SciTegic12132405553D

 51 54  0  0  0  0            999 V2000
   -3.5070   -0.2965    7.2316 C   0  0
   -4.6125   -1.1204    6.6506 C   0  0
   -4.5051   -2.4657    6.6975 C   0  0
   -3.3066   -3.1055    7.2904 C   0  0
   -2.3549   -2.3220    7.7709 C   0  0
   -2.4687   -0.9307    7.7503 C   0  0
   -0.2989   -1.5334    8.1631 C   0  0  1  0  0  0
   -1.3137   -0.3874    8.4517 C   0  0
   -1.1314   -2.6937    8.3029 O   0  0
    1.6241   -4.9134    5.8541 C   0  0
    0.5801   -3.8740    6.2930 C   0  0
    1.1854   -2.5165    6.2843 N   0  0
    1.6511   -2.2150    4.9248 C   0  0
    2.6951   -3.2560    4.4854 C   0  0
    2.0834   -4.6093    4.4965 N   0  0
    0.2217   -1.4354    6.6692 C   0  0
    3.0715   -5.6394    4.1056 C   0  0
    3.5260   -5.4746    2.6755 C   0  0
    2.6320   -5.3081    1.7010 C   0  0
   -5.8308   -0.4574    6.0418 C   0  0
   -8.0026   -0.6821    4.9433 C   0  0
   -8.0983    0.7701    4.9111 C   0  0
   -7.1167    1.5119    5.4144 C   0  0
   -5.9364    0.8769    6.0030 C   0  0
   -6.9347   -1.2715    5.4755 C   0  0
   -3.5580    0.7589    7.2598 H   0  0
   -5.2669   -3.0787    6.3036 H   0  0
   -3.2007   -4.1601    7.3018 H   0  0
    0.5692   -1.4956    8.8349 H   0  0
   -1.5786   -0.4437    9.5163 H   0  0
   -0.9899    0.6342    8.2098 H   0  0
    2.4794   -4.8903    6.5437 H   0  0
    1.1698   -5.9134    5.8666 H   0  0
   -0.2719   -3.8970    5.5989 H   0  0
    0.2370   -4.1264    7.3009 H   0  0
    0.7967   -2.2333    4.2337 H   0  0
    2.1099   -1.2170    4.9138 H   0  0
    3.0423   -3.0071    3.4755 H   0  0
    3.5456   -3.2352    5.1809 H   0  0
    0.7538   -0.4794    6.5763 H   0  0
   -0.6150   -1.4451    5.9590 H   0  0
    3.9328   -5.6283    4.7877 H   0  0
    2.5573   -6.6075    4.1789 H   0  0
    4.5589   -5.5265    2.4408 H   0  0
    1.5967   -5.2787    1.9322 H   0  0
    2.9553   -5.2042    0.6962 H   0  0
   -8.7864   -1.2724    4.5413 H   0  0
   -8.9509    1.2362    4.4862 H   0  0
   -7.1893    2.5696    5.3896 H   0  0
   -5.1722    1.4880    6.3955 H   0  0
   -6.8831   -2.3269    5.4899 H   0  0
  1  2  1  0
  2  3  2  0
  3  4  1  0
  4  5  2  0
  5  6  1  0
  1  6  2  0
  7  8  1  0
  7  9  1  0
  8  6  1  0
  5  9  1  0
 10 11  1  0
 11 12  1  0
 12 13  1  0
 13 14  1  0
 14 15  1  0
 10 15  1  0
 16 12  1  0
  7 16  1  0
 15 17  1  0
 17 18  1  0
 18 19  2  0
  2 20  1  0
 21 22  1  0
 22 23  2  0
 23 24  1  0
 21 25  2  0
 24 20  2  0
 20 25  1  0
  1 26  1  0
  3 27  1  0
  4 28  1  0
  7 29  1  0
  8 30  1  0
  8 31  1  0
 10 32  1  0
 10 33  1  0
 11 34  1  0
 11 35  1  0
 13 36  1  0
 13 37  1  0
 14 38  1  0
 14 39  1  0
 16 40  1  0
 16 41  1  0
 17 42  1  0
 17 43  1  0
 18 44  1  0
 19 45  1  0
 19 46  1  0
 21 47  1  0
 22 48  1  0
 23 49  1  0
 24 50  1  0
 25 51  1  0
M  END
> <Name>
MCF2021_1h (R)

> <Clean Energy>
47.7071

$$$$
MCF2021_2a
  SciTegic12132405553D

 35 37  0  0  0  0            999 V2000
    6.1145    0.0240   -4.4412 C   0  0
    6.5705    0.5973   -5.7261 C   0  0
    5.6901    0.7858   -6.7224 C   0  0
    4.2666    0.4181   -6.5305 C   0  0
    3.9145   -0.0922   -5.3588 C   0  0
    4.8308   -0.2835   -4.3320 C   0  0
    2.8467   -0.9591   -3.6216 C   0  0
    4.1204   -0.8367   -3.2389 C   0  0
    2.6773   -0.5054   -4.9430 O   0  0
    1.7493   -1.5026   -2.7580 C   0  0
    1.2274   -0.4375   -1.8764 N   0  0
   -0.9532    1.1341   -0.8547 N   0  0
    0.0699    1.7366   -1.7159 C   0  0
    0.6276    0.6680   -2.6710 C   0  0
    0.1953   -1.0282   -1.0142 C   0  0
   -0.3632    0.0470   -0.0660 C   0  0
   -1.4762    2.1528    0.0513 C   0  0
    6.7882   -0.1346   -3.6381 H   0  0
    7.5894    0.8590   -5.8600 H   0  0
    6.0125    1.1969   -7.6453 H   0  0
    3.5546    0.5580   -7.3037 H   0  0
    4.5225   -1.1017   -2.2946 H   0  0
    0.9201   -1.8746   -3.3750 H   0  0
    2.1569   -2.2857   -2.1041 H   0  0
   -0.3775    2.5528   -2.2992 H   0  0
    0.8839    2.1335   -1.0930 H   0  0
   -0.1885    0.2696   -3.2895 H   0  0
    1.3845    1.1312   -3.3167 H   0  0
    0.6370   -1.8425   -0.4238 H   0  0
   -0.6170   -1.4262   -1.6383 H   0  0
   -1.1342   -0.3963    0.5788 H   0  0
    0.4503    0.4469    0.5556 H   0  0
   -2.2430    1.7061    0.6997 H   0  0
   -1.9190    2.9703   -0.5348 H   0  0
   -0.6558    2.5451    0.6684 H   0  0
  1  2  1  0
  2  3  2  0
  3  4  1  0
  4  5  2  0
  5  6  1  0
  1  6  2  0
  7  8  2  0
  7  9  1  0
  8  6  1  0
  5  9  1  0
  7 10  1  0
 12 13  1  0
 13 14  1  0
 15 16  1  0
 12 16  1  0
 14 11  1  0
 11 15  1  0
 12 17  1  0
 10 11  1  0
  1 18  1  0
  2 19  1  0
  3 20  1  0
  4 21  1  0
  8 22  1  0
 10 23  1  0
 10 24  1  0
 13 25  1  0
 13 26  1  0
 14 27  1  0
 14 28  1  0
 15 29  1  0
 15 30  1  0
 16 31  1  0
 16 32  1  0
 17 33  1  0
 17 34  1  0
 17 35  1  0
M  END
> <Name>
MCF2021_2a

> <Clean Energy>
27.7964

$$$$
MCF2021_2b
  SciTegic12132405553D

 37 39  0  0  0  0            999 V2000
    3.1893   -2.1541   -4.9363 C   0  0
    3.0275   -1.2683   -6.1074 C   0  0
    3.8413   -0.2293   -6.2046 C   0  0
    4.8386    0.0463   -5.2625 C   0  0
    5.0128   -0.7079   -4.1860 C   0  0
    4.1287   -1.8830   -4.0161 C   0  0
    5.3526    1.2301   -7.0667 C   0  0
    5.5683    1.1374   -5.6571 O   0  0
    3.8508    0.8413   -7.1931 C   0  0
    2.2961   -3.3492   -4.7686 C   0  0
    1.5002   -3.2450   -3.5249 N   0  0
   -1.0203   -3.2782   -2.1399 N   0  0
   -0.2555   -2.0347   -2.2805 C   0  0
    0.5672   -2.0864   -3.5782 C   0  0
    0.7224   -4.4822   -3.3794 C   0  0
   -0.1047   -4.4227   -2.0832 C   0  0
   -1.7966   -3.2252   -0.9044 C   0  0
    2.2677   -1.4411   -6.8256 H   0  0
    5.7782   -0.4926   -3.4850 H   0  0
    4.2417   -2.5161   -3.1732 H   0  0
    5.5955    2.1994   -7.5243 H   0  0
    5.9531    0.4307   -7.5230 H   0  0
    3.2453    1.6573   -6.7747 H   0  0
    3.4941    0.5881   -8.2012 H   0  0
    1.6306   -3.4632   -5.6351 H   0  0
    2.9316   -4.2363   -4.6433 H   0  0
   -0.9472   -1.1822   -2.3178 H   0  0
    0.4205   -1.9223   -1.4212 H   0  0
   -0.1094   -2.2037   -4.4359 H   0  0
    1.1298   -1.1499   -3.6806 H   0  0
    1.4078   -5.3395   -3.3362 H   0  0
    0.0495   -4.5933   -4.2411 H   0  0
   -0.6848   -5.3492   -1.9745 H   0  0
    0.5696   -4.3084   -1.2227 H   0  0
   -2.3714   -4.1553   -0.7938 H   0  0
   -2.4842   -2.3686   -0.9414 H   0  0
   -1.1131   -3.1115   -0.0512 H   0  0
  1  2  1  0
  2  3  2  0
  3  4  1  0
  4  5  2  0
  5  6  1  0
  1  6  2  0
  7  8  1  0
  7  9  1  0
  3  9  1  0
  8  4  1  0
  1 10  1  0
 10 11  1  0
 12 13  1  0
 13 14  1  0
 15 16  1  0
 12 16  1  0
 14 11  1  0
 11 15  1  0
 12 17  1  0
  2 18  1  0
  5 19  1  0
  6 20  1  0
  7 21  1  0
  7 22  1  0
  9 23  1  0
  9 24  1  0
 10 25  1  0
 10 26  1  0
 13 27  1  0
 13 28  1  0
 14 29  1  0
 14 30  1  0
 15 31  1  0
 15 32  1  0
 16 33  1  0
 16 34  1  0
 17 35  1  0
 17 36  1  0
 17 37  1  0
M  END
> <Name>
MCF2021_2b

> <Clean Energy>
47.5376

$$$$
MCF2021_2c
  SciTegic12132405553D

 34 36  0  0  0  0            999 V2000
   -2.9040   -1.0860    1.3995 C   0  0
   -4.1172   -1.9302    1.4511 C   0  0
   -4.0295   -3.2406    1.1714 C   0  0
   -2.7187   -3.8329    0.8129 C   0  0
   -1.6662   -3.0273    0.7828 C   0  0
   -1.7640   -1.6759    1.0727 C   0  0
    0.3564   -2.1245    0.5951 C   0  0
   -0.4636   -1.1288    0.9454 C   0  0
   -0.3672   -3.3304    0.4846 O   0  0
    1.8108   -1.9367    0.3680 C   0  0
    2.7136   -2.9847   -0.0061 N   0  0
    4.5817   -4.9699    0.5914 N   0  0
    3.1363   -5.2066    0.7934 C   0  0
    2.3344   -4.3607   -0.2104 C   0  0
    4.0978   -2.6829   -0.1806 C   0  0
    4.8854   -3.5421    0.8232 C   0  0
    5.3319   -5.7751    1.5509 C   0  0
    2.2696   -0.7992    0.5175 O   0  0
   -2.9444   -0.0489    1.6157 H   0  0
   -5.0528   -1.5023    1.7081 H   0  0
   -4.8963   -3.8506    1.2069 H   0  0
   -2.6257   -4.8649    0.5882 H   0  0
   -0.1909   -0.1159    1.0997 H   0  0
    2.9072   -6.2705    0.6441 H   0  0
    2.8663   -4.9127    1.8177 H   0  0
    2.6391   -4.6706   -1.2196 H   0  0
    1.2710   -4.5230   -0.0717 H   0  0
    4.2969   -1.6164   -0.0148 H   0  0
    4.4088   -2.9816   -1.1914 H   0  0
    5.9618   -3.3638    0.6955 H   0  0
    4.5875   -3.2753    1.8471 H   0  0
    6.4080   -5.6003    1.4122 H   0  0
    5.1070   -6.8388    1.3902 H   0  0
    5.0412   -5.4878    2.5712 H   0  0
  1  2  1  0
  2  3  2  0
  3  4  1  0
  4  5  2  0
  5  6  1  0
  1  6  2  0
  7  8  2  0
  7  9  1  0
  8  6  1  0
  5  9  1  0
  7 10  1  0
 12 13  1  0
 13 14  1  0
 15 16  1  0
 12 16  1  0
 14 11  1  0
 11 15  1  0
 12 17  1  0
 10 11  1  0
 10 18  2  0
  1 19  1  0
  2 20  1  0
  3 21  1  0
  4 22  1  0
  8 23  1  0
 13 24  1  0
 13 25  1  0
 14 26  1  0
 14 27  1  0
 15 28  1  0
 15 29  1  0
 16 30  1  0
 16 31  1  0
 17 32  1  0
 17 33  1  0
 17 34  1  0
M  END
> <Name>
MCF2021_2c

> <Clean Energy>
34.507

$$$$
MCF2021_2d
  DSViewer          3D                             0

 41 44  0  0  0  0  0  0  0  0999 V2000
   -7.0332    1.9221    0.7190 C   0  0
   -7.9166    0.7455    0.8686 C   0  0
   -7.4456   -0.4809    0.5910 C   0  0
   -6.0445   -0.6484    0.1368 C   0  0
   -5.2999    0.4424    0.0213 C   0  0
   -5.7925    1.7050    0.3093 C   0  0
   -3.6769    1.9210   -0.3256 C   0  0
   -4.7392    2.6239    0.0797 C   0  0
   -3.9957    0.5478   -0.3731 O   0  0
   -2.3722    2.5424   -0.6618 C   0  0
   -1.2155    1.8135   -1.0898 N   0  0
    1.1334    0.5524   -0.5613 N   0  0
   -0.1088   -0.1547   -0.2733 C   0  0
   -1.1658    0.3740   -1.2565 C   0  0
    0.0009    2.5279   -1.3537 C   0  0
    1.0581    1.9990   -0.3697 C   0  0
    2.3495   -0.1406   -1.0489 C   0  0
   -2.2786    3.7696   -0.5511 O   0  0
    2.3562   -1.6222   -1.2555 C   0  0
    3.4821    0.5305   -1.3225 C   0  0
    4.6727   -0.1730   -1.8032 C   0  0
    4.6551   -1.4891   -1.9784 C   0  0
    3.4488   -2.2422   -1.6934 C   0  0
   -7.3788    2.9017    0.9314 H   0  0
   -8.9182    0.8699    1.1940 H   0  0
   -8.0748   -1.3281    0.6966 H   0  0
   -5.6511   -1.6070   -0.0878 H   0  0
   -4.7846    3.6755    0.2072 H   0  0
   -0.0141   -1.2344   -0.3696 H   0  0
   -0.4442    0.1110    0.7390 H   0  0
   -0.8124    0.1438   -2.2714 H   0  0
   -2.1231   -0.1019   -1.0726 H   0  0
   -0.1335    3.6104   -1.2323 H   0  0
    0.3457    2.2906   -2.3701 H   0  0
    2.0113    2.4994   -0.5383 H   0  0
    0.6915    2.2058    0.6455 H   0  0
    1.4949   -2.1973   -1.0577 H   0  0
    3.5380    1.5733   -1.1973 H   0  0
    5.5569    0.3734   -2.0130 H   0  0
    5.5229   -1.9894   -2.3269 H   0  0
    3.4374   -3.2931   -1.8348 H   0  0
  1  2  1  0  0  0
  2  3  2  0  0  0
  3  4  1  0  0  0
  4  5  2  0  0  0
  5  6  1  0  0  0
  1  6  2  0  0  0
  7  8  2  0  0  0
  7  9  1  0  0  0
  8  6  1  0  0  0
  5  9  1  0  0  0
  7 10  1  0  0  0
 12 13  1  0  0  0
 13 14  1  0  0  0
 15 16  1  0  0  0
 12 16  1  0  0  0
 14 11  1  0  0  0
 11 15  1  0  0  0
 12 17  1  0  0  0
 10 11  1  0  0  0
 10 18  2  0  0  0
 20 21  1  0  0  0
 21 22  2  0  0  0
 22 23  1  0  0  0
 19 23  2  0  0  0
 19 17  1  0  0  0
 17 20  2  0  0  0
  1 24  1  0  0  0
  2 25  1  0  0  0
  3 26  1  0  0  0
  4 27  1  0  0  0
  8 28  1  0  0  0
 13 29  1  0  0  0
 13 30  1  0  0  0
 14 31  1  0  0  0
 14 32  1  0  0  0
 15 33  1  0  0  0
 15 34  1  0  0  0
 16 35  1  0  0  0
 16 36  1  0  0  0
 19 37  1  0  0  0
 20 38  1  0  0  0
 21 39  1  0  0  0
 22 40  1  0  0  0
 23 41  1  0  0  0
M  END
> <Clean Energy>
215.828

$$$$
MFC2020_1a
  SciTegic12132405553D

 34 36  0  0  0  0            999 V2000
    3.7102    3.3110   -5.7473 C   0  0
    4.5273    3.1408   -6.9727 C   0  0
    4.3179    2.0872   -7.7785 C   0  0
    3.2554    1.1115   -7.4540 C   0  0
    2.5530    1.3167   -6.3505 C   0  0
    2.7838    2.3985   -5.4904 C   0  0
    1.5874    0.9397   -4.3405 C   0  0  2  0  0  0
    1.9584    2.3145   -4.3991 O   0  0
    1.4094    0.5767   -5.8355 C   0  0
   -0.6476    1.0798    0.1195 C   0  0
    0.4506    0.3480    0.7633 N   0  0
    1.7181    0.6604    0.0902 C   0  0
    1.6280    0.2393   -1.3874 C   0  0
    0.5161    0.9799   -2.0486 N   0  0
   -0.7429    0.6638   -1.3598 C   0  0
    0.3528    0.5917   -3.4764 C   0  0
    3.8803    4.1200   -5.0834 H   0  0
    5.2844    3.8454   -7.2072 H   0  0
    4.9043    1.9626   -8.6532 H   0  0
    3.0440    0.2943   -8.0953 H   0  0
    2.4760    0.4053   -3.9820 H   0  0
    1.3406   -0.4927   -6.0775 H   0  0
    0.5158    1.0978   -6.2053 H   0  0
   -1.5925    0.8427    0.6276 H   0  0
   -0.4561    2.1605    0.1846 H   0  0
    0.2707   -0.6631    0.6989 H   0  0
    1.9107    1.7410    0.1529 H   0  0
    2.5362    0.1121    0.5772 H   0  0
    2.5832    0.4652   -1.8757 H   0  0
    1.4312   -0.8403   -1.4467 H   0  0
   -1.5656    1.2116   -1.8392 H   0  0
   -0.9333   -0.4166   -1.4271 H   0  0
   -0.5097    1.1364   -3.8839 H   0  0
    0.1594   -0.4880   -3.5325 H   0  0
  1  2  1  0
  2  3  2  0
  3  4  1  0
  4  5  2  0
  5  6  1  0
  1  6  2  0
  7  8  1  0
  7  9  1  0
  8  6  1  0
  5  9  1  0
 10 11  1  0
 11 12  1  0
 12 13  1  0
 13 14  1  0
 14 15  1  0
 10 15  1  0
  7 16  1  0
 16 14  1  0
  1 17  1  0
  2 18  1  0
  3 19  1  0
  4 20  1  0
  7 21  1  0
  9 22  1  0
  9 23  1  0
 10 24  1  0
 10 25  1  0
 11 26  1  0
 12 27  1  0
 12 28  1  0
 13 29  1  0
 13 30  1  0
 15 31  1  0
 15 32  1  0
 16 33  1  0
 16 34  1  0
M  END
> <Name>
MFC2020_1a

> <Clean Energy>
37.9519004821777

$$$$
MFC2020_1b
  SciTegic12132405553D

 37 39  0  0  0  0            999 V2000
   -1.9491   -4.2458    0.4893 C   0  0
   -1.5349   -5.5018    1.1594 C   0  0
   -0.8114   -5.4529    2.2897 C   0  0
   -0.4502   -4.1449    2.8769 C   0  0
   -0.8519   -3.0564    2.2390 C   0  0
   -1.5833   -3.0992    1.0448 C   0  0
   -0.7803   -1.0475    1.2042 C   0  0  2  0  0  0
   -1.7959   -1.8275    0.5790 O   0  0
   -0.7137   -1.6589    2.6247 C   0  0
   -0.1975    3.3223    0.3881 C   0  0
    0.9813    3.0928   -0.4641 N   0  0
    1.3340    1.6626   -0.4913 C   0  0
    0.1290    0.8547   -1.0536 C   0  0
   -1.0975    1.0432   -0.2015 N   0  0
   -1.3940    2.5031   -0.1769 C   0  0
   -0.9856    0.4831    1.2067 C   0  0
    2.1085    3.8545    0.0645 C   0  0
   -2.4951   -4.2640   -0.4193 H   0  0
   -1.8008   -6.4389    0.7402 H   0  0
   -0.5116   -6.3507    2.7677 H   0  0
    0.0852   -4.0803    3.7895 H   0  0
    0.1549   -1.3087    0.6929 H   0  0
    0.1531   -1.3810    3.2397 H   0  0
   -1.6409   -1.3931    3.1505 H   0  0
    0.0283    3.0139    1.4165 H   0  0
   -0.4488    4.3915    0.3802 H   0  0
    2.2080    1.5159   -1.1397 H   0  0
    1.5770    1.3248    0.5248 H   0  0
   -0.0873    1.2252   -2.0652 H   0  0
    0.3897   -0.2085   -1.1124 H   0  0
   -1.5815    2.8416   -1.2056 H   0  0
   -2.2904    2.6789    0.4333 H   0  0
   -1.9227    0.6988    1.7372 H   0  0
   -0.1541    0.9490    1.7457 H   0  0
    2.9891    3.6937   -0.5729 H   0  0
    2.3274    3.5152    1.0868 H   0  0
    1.8529    4.9232    0.0784 H   0  0
  1  2  1  0
  2  3  2  0
  3  4  1  0
  4  5  2  0
  5  6  1  0
  1  6  2  0
  7  8  1  0
  7  9  1  0
  8  6  1  0
  5  9  1  0
 10 11  1  0
 11 12  1  0
 12 13  1  0
 13 14  1  0
 14 15  1  0
 10 15  1  0
  7 16  1  0
 16 14  1  0
 11 17  1  0
  1 18  1  0
  2 19  1  0
  3 20  1  0
  4 21  1  0
  7 22  1  0
  9 23  1  0
  9 24  1  0
 10 25  1  0
 10 26  1  0
 12 27  1  0
 12 28  1  0
 13 29  1  0
 13 30  1  0
 15 31  1  0
 15 32  1  0
 16 33  1  0
 16 34  1  0
 17 35  1  0
 17 36  1  0
 17 37  1  0
M  END
> <Name>
MFC2020_1b

> <Clean Energy>
38.915

$$$$
MFC2020_1c
  SciTegic12132405553D

 41 43  0  0  0  0            999 V2000
    1.2158   -8.2013   -5.0857 C   0  0
    0.0696   -9.1430   -5.0758 C   0  0
   -0.4877   -9.5125   -3.9141 C   0  0
    0.0593   -9.0041   -2.6369 C   0  0
    1.0897   -8.1725   -2.7038 C   0  0
    1.6596   -7.7556   -3.9172 C   0  0
    2.4770   -6.3753   -2.3460 C   0  0  2  0  0  0
    2.6766   -6.8478   -3.6849 O   0  0
    1.9030   -7.6298   -1.6287 C   0  0
    3.2297   -2.8814   -1.2989 C   0  0
    2.2764   -1.7739   -1.2500 N   0  0
    0.9151   -2.2401   -1.6542 C   0  0
    0.9882   -2.8374   -3.1064 C   0  0
    1.9521   -3.9850   -3.1740 N   0  0
    3.2848   -3.4494   -2.7341 C   0  0
    1.4354   -5.1934   -2.3767 C   0  0
    2.2953   -1.2539    0.1330 C   0  0
    1.4163   -0.0505    0.2728 C   0  0
    1.9696    1.1596    0.2713 C   0  0
    1.6535   -7.8795   -5.9950 H   0  0
   -0.3121   -9.5193   -5.9919 H   0  0
   -1.3062  -10.1883   -3.9077 H   0  0
   -0.3253   -9.3277   -1.7046 H   0  0
    3.3825   -6.0156   -1.8459 H   0  0
    2.7235   -8.3523   -1.5391 H   0  0
    1.4496   -7.4790   -0.6389 H   0  0
    4.2237   -2.5081   -1.0205 H   0  0
    2.9262   -3.6637   -0.5910 H   0  0
    0.5715   -3.0056   -0.9492 H   0  0
    0.2094   -1.3987   -1.6432 H   0  0
   -0.0072   -3.1744   -3.4268 H   0  0
    1.3387   -2.0429   -3.7815 H   0  0
    4.0392   -4.2401   -2.7851 H   0  0
    3.5791   -2.6365   -3.4131 H   0  0
    0.4899   -5.5227   -2.8306 H   0  0
    1.2473   -4.9086   -1.3376 H   0  0
    1.9423   -2.0591    0.7928 H   0  0
    3.3292   -0.9699    0.3762 H   0  0
    0.3663   -0.1590    0.3744 H   0  0
    3.0228    1.2589    0.1696 H   0  0
    1.3628    2.0224    0.3721 H   0  0
  1  2  1  0
  2  3  2  0
  3  4  1  0
  4  5  2  0
  5  6  1  0
  1  6  2  0
  7  8  1  0
  7  9  1  0
  8  6  1  0
  5  9  1  0
 10 11  1  0
 11 12  1  0
 12 13  1  0
 13 14  1  0
 14 15  1  0
 10 15  1  0
  7 16  1  0
 16 14  1  0
 11 17  1  0
 17 18  1  0
 18 19  2  0
  1 20  1  0
  2 21  1  0
  3 22  1  0
  4 23  1  0
  7 24  1  0
  9 25  1  0
  9 26  1  0
 10 27  1  0
 10 28  1  0
 12 29  1  0
 12 30  1  0
 13 31  1  0
 13 32  1  0
 15 33  1  0
 15 34  1  0
 16 35  1  0
 16 36  1  0
 17 37  1  0
 17 38  1  0
 18 39  1  0
 19 40  1  0
 19 41  1  0
M  END
> <Name>
MFC2020_1c

> <Clean Energy>
53.4488

$$$$
MFC2020_1d
  SciTegic12132405553D

 44 47  0  0  0  0            999 V2000
   -2.6092   -3.4794    0.1669 C   0  0
   -3.4138   -4.1137    1.2393 C   0  0
   -2.8651   -4.3514    2.4422 C   0  0
   -1.4496   -4.0037    2.6894 C   0  0
   -0.7755   -3.4454    1.6960 C   0  0
   -1.3505   -3.1671    0.4413 C   0  0
    0.5347   -1.9739    0.5370 C   0  0  2  0  0  0
   -0.4375   -2.5137   -0.3672 O   0  0
    0.6359   -3.0832    1.6240 C   0  0
   -0.0273    2.3788    1.6245 C   0  0
    1.2049    2.7275    0.9198 N   0  0
    1.9146    1.5996    0.3079 C   0  0
    0.9334    0.8623   -0.6480 C   0  0
   -0.3042    0.3998    0.0733 N   0  0
   -0.9557    1.6164    0.6351 C   0  0
   -0.0724   -0.6513    1.1430 C   0  0
    1.7059    4.1271    0.8514 C   0  0
    2.6371    6.7978    0.7408 C   0  0
    1.4055    6.4959    1.4434 C   0  0
    0.9543    5.2459    1.5046 C   0  0
    2.8449    4.4400    0.2077 C   0  0
    3.3215    5.8235    0.1537 C   0  0
   -3.0352   -3.2547   -0.7774 H   0  0
   -4.4271   -4.3694    1.0599 H   0  0
   -3.4427   -4.8012    3.2093 H   0  0
   -0.9830   -4.2206    3.6161 H   0  0
    1.5108   -1.7478    0.0898 H   0  0
    1.1275   -3.9518    1.1652 H   0  0
    1.1557   -2.8196    2.5553 H   0  0
    0.2189    1.7137    2.4604 H   0  0
   -0.5456    3.2552    2.0022 H   0  0
    2.7920    1.9195   -0.2496 H   0  0
    2.2175    0.9010    1.0978 H   0  0
    0.6278    1.5683   -1.4328 H   0  0
    1.4441    0.0119   -1.1145 H   0  0
   -1.1922    2.2942   -0.1973 H   0  0
   -1.8854    1.3294    1.1451 H   0  0
   -1.0403   -0.8620    1.6125 H   0  0
    0.6122   -0.2750    1.9097 H   0  0
    2.9912    7.7964    0.6960 H   0  0
    0.8610    7.2762    1.9116 H   0  0
    0.0560    5.0605    2.0234 H   0  0
    3.4185    3.7002   -0.2702 H   0  0
    4.2220    6.0492   -0.3589 H   0  0
  1  2  1  0
  2  3  2  0
  3  4  1  0
  4  5  2  0
  5  6  1  0
  1  6  2  0
  7  8  1  0
  7  9  1  0
  8  6  1  0
  5  9  1  0
 10 11  1  0
 11 12  1  0
 12 13  1  0
 13 14  1  0
 14 15  1  0
 10 15  1  0
  7 16  1  0
 16 14  1  0
 11 17  1  0
 18 19  1  0
 19 20  2  0
 21 22  1  0
 18 22  2  0
 20 17  1  0
 17 21  2  0
  1 23  1  0
  2 24  1  0
  3 25  1  0
  4 26  1  0
  7 27  1  0
  9 28  1  0
  9 29  1  0
 10 30  1  0
 10 31  1  0
 12 32  1  0
 12 33  1  0
 13 34  1  0
 13 35  1  0
 15 36  1  0
 15 37  1  0
 16 38  1  0
 16 39  1  0
 18 40  1  0
 19 41  1  0
 20 42  1  0
 21 43  1  0
 22 44  1  0
M  END
> <Name>
MFC2020_1d

> <Clean Energy>
59.9389

$$$$
MFC2020_1e
  SciTegic12132405553D

 37 39  0  0  0  0            999 V2000
   -0.9100   -3.5544   -0.5824 C   0  0
   -1.1018   -4.9824   -0.2326 C   0  0
   -1.0780   -5.3678    1.0535 C   0  0
   -0.8845   -4.3625    2.1202 C   0  0
   -0.7242   -3.1014    1.7502 C   0  0
   -0.7205   -2.6953    0.4091 C   0  0
    0.1793   -1.0376    1.5591 C   0  0  2  0  0  0
   -0.4639   -1.3512    0.3268 O   0  0
   -0.5992   -1.9081    2.5754 C   0  0
    1.7531    3.0464    2.5309 C   0  0
    3.1531    2.6564    2.2933 N   0  0
    3.2478    1.2197    1.9809 C   0  0
    2.4086    0.9227    0.7048 C   0  0
    0.9625    1.2881    0.9074 N   0  0
    0.9207    2.7369    1.2529 C   0  0
    0.2363    0.4551    1.9504 C   0  0
    3.9376    2.9392    3.4910 C   0  0
   -1.2949   -7.0318    1.4621 Cl  0  0
   -0.8962   -3.2351   -1.5932 H   0  0
   -1.2470   -5.7012   -0.9987 H   0  0
   -0.9023   -4.6363    3.1442 H   0  0
    1.1919   -1.4535    1.4824 H   0  0
   -0.1512   -2.0197    3.5722 H   0  0
   -1.6119   -1.4930    2.6693 H   0  0
    1.3589    2.4905    3.3906 H   0  0
    1.7074    4.1223    2.7466 H   0  0
    4.2980    0.9557    1.7984 H   0  0
    2.8700    0.6337    2.8291 H   0  0
    2.8114    1.5307   -0.1171 H   0  0
    2.4979   -0.1373    0.4399 H   0  0
    1.3519    3.3099    0.4200 H   0  0
   -0.1239    3.0420    1.4026 H   0  0
   -0.7949    0.8251    2.0279 H   0  0
    0.7227    0.5447    2.9274 H   0  0
    4.9855    2.6581    3.3162 H   0  0
    3.5361    2.3576    4.3328 H   0  0
    3.8769    4.0118    3.7227 H   0  0
  1  2  1  0
  2  3  2  0
  3  4  1  0
  4  5  2  0
  5  6  1  0
  1  6  2  0
  7  8  1  0
  7  9  1  0
  8  6  1  0
  5  9  1  0
 10 11  1  0
 11 12  1  0
 12 13  1  0
 13 14  1  0
 14 15  1  0
 10 15  1  0
  7 16  1  0
 16 14  1  0
 11 17  1  0
  3 18  1  0
  1 19  1  0
  2 20  1  0
  4 21  1  0
  7 22  1  0
  9 23  1  0
  9 24  1  0
 10 25  1  0
 10 26  1  0
 12 27  1  0
 12 28  1  0
 13 29  1  0
 13 30  1  0
 15 31  1  0
 15 32  1  0
 16 33  1  0
 16 34  1  0
 17 35  1  0
 17 36  1  0
 17 37  1  0
M  END
> <Name>
MFC2020_1e

> <Clean Energy>
38.8474

$$$$
MFC2020_1f
  SciTegic12132405553D

 40 42  0  0  0  0            999 V2000
   -1.1293   -3.4554   -0.5365 C   0  0
   -1.3040   -4.8827   -0.1787 C   0  0
   -1.2870   -5.2578    1.1096 C   0  0
   -1.1183   -4.2461    2.1707 C   0  0
   -0.9725   -2.9854    1.7948 C   0  0
   -0.9616   -2.5874    0.4513 C   0  0
   -0.0968   -0.9104    1.5998 C   0  0  2  0  0  0
   -0.7233   -1.2404    0.3631 O   0  0
   -0.8726   -1.7859    2.6138 C   0  0
    1.4069    3.2026    2.5618 C   0  0
    2.8148    2.8320    2.3408 N   0  0
    2.9340    1.3949    2.0386 C   0  0
    2.1124    1.0774    0.7560 C   0  0
    0.6590    1.4226    0.9417 N   0  0
    0.5923    2.8727    1.2775 C   0  0
   -0.0653    0.5854    1.9826 C   0  0
    3.5828    3.1341    3.5445 C   0  0
   -1.4577   -6.6978    1.4710 C   0  0
   -1.1103   -3.1427   -1.5492 H   0  0
   -1.4317   -5.6094   -0.9401 H   0  0
   -1.1423   -4.5152    3.1955 H   0  0
    0.9225   -1.3119    1.5355 H   0  0
   -0.4328   -1.8852    3.6155 H   0  0
   -1.8920   -1.3850    2.6953 H   0  0
    1.0122    2.6462    3.4210 H   0  0
    1.3430    4.2790    2.7701 H   0  0
    3.9899    1.1455    1.8684 H   0  0
    2.5563    0.8087    2.8867 H   0  0
    2.5145    1.6862   -0.0657 H   0  0
    2.2200    0.0172    0.4988 H   0  0
    1.0233    3.4469    0.4453 H   0  0
   -0.4582    3.1632    1.4147 H   0  0
   -1.1024    0.9407    2.0477 H   0  0
    0.4100    0.6879    2.9637 H   0  0
    4.6365    2.8675    3.3822 H   0  0
    3.1815    2.5519    4.3859 H   0  0
    3.5037    4.2070    3.7687 H   0  0
   -1.1669   -6.8720    2.5169 H   0  0
   -0.8827   -7.3231    0.7734 H   0  0
   -2.5167   -6.9604    1.3379 H   0  0
  1  2  1  0
  2  3  2  0
  3  4  1  0
  4  5  2  0
  5  6  1  0
  1  6  2  0
  7  8  1  0
  7  9  1  0
  8  6  1  0
  5  9  1  0
 10 11  1  0
 11 12  1  0
 12 13  1  0
 13 14  1  0
 14 15  1  0
 10 15  1  0
  7 16  1  0
 16 14  1  0
 11 17  1  0
  3 18  1  0
  1 19  1  0
  2 20  1  0
  4 21  1  0
  7 22  1  0
  9 23  1  0
  9 24  1  0
 10 25  1  0
 10 26  1  0
 12 27  1  0
 12 28  1  0
 13 29  1  0
 13 30  1  0
 15 31  1  0
 15 32  1  0
 16 33  1  0
 16 34  1  0
 17 35  1  0
 17 36  1  0
 17 37  1  0
 18 38  1  0
 18 39  1  0
 18 40  1  0
M  END
> <Name>
MFC2020_1f

> <Clean Energy>
50.5309

$$$$
MFC2020_1g
  SciTegic12132405553D

 49 51  0  0  0  0            999 V2000
   -0.4725   -3.4033   -0.5558 C   0  0
   -1.5455   -4.2817   -0.0378 C   0  0
   -1.5521   -4.6751    1.2536 C   0  0
   -0.4256   -4.2238    2.1469 C   0  0
    0.5030   -3.4458    1.6160 C   0  0
    0.4792   -3.0209    0.2800 C   0  0
    1.9284   -1.6830    1.3256 C   0  0  2  0  0  0
    1.5306   -2.1558    0.0341 O   0  0
    1.7343   -2.9427    2.2160 C   0  0
    0.2990    2.3453    2.5212 C   0  0
    1.6203    2.9902    2.4399 N   0  0
    2.6644    2.0005    2.1226 C   0  0
    2.3329    1.3354    0.7557 C   0  0
    0.9965    0.6446    0.7971 N   0  0
   -0.0185    1.6750    1.1529 C   0  0
    0.9205   -0.5440    1.7406 C   0  0
    1.9268    3.6155    3.7225 C   0  0
   -2.6945   -5.5911    1.7694 C   0  0
   -2.5675   -5.8885    3.2721 C   0  0
   -2.6680   -6.9148    0.9884 C   0  0
   -4.0539   -4.9197    1.5008 C   0  0
   -0.4829   -3.0651   -1.5601 H   0  0
   -2.3194   -4.5908   -0.6936 H   0  0
   -0.3422   -4.5302    3.1539 H   0  0
    2.9524   -1.2937    1.3833 H   0  0
    2.5053   -3.6710    1.9304 H   0  0
    1.7611   -2.7908    3.3037 H   0  0
    0.3054    1.5973    3.3237 H   0  0
   -0.4627    3.1047    2.7433 H   0  0
    3.6370    2.5063    2.0575 H   0  0
    2.7039    1.2414    2.9148 H   0  0
    2.2952    2.1251   -0.0074 H   0  0
    3.1203    0.6215    0.4897 H   0  0
   -0.0106    2.4578    0.3816 H   0  0
   -1.0115    1.2063    1.1861 H   0  0
   -0.1078   -0.9226    1.7092 H   0  0
    1.1479   -0.2383    2.7667 H   0  0
    2.9085    4.1060    3.6646 H   0  0
    1.9463    2.8447    4.5058 H   0  0
    1.1550    4.3611    3.9593 H   0  0
   -3.3961   -6.5397    3.5829 H   0  0
   -2.6097   -4.9465    3.8373 H   0  0
   -1.6113   -6.3943    3.4678 H   0  0
   -3.4890   -7.5566    1.3365 H   0  0
   -1.7075   -7.4196    1.1622 H   0  0
   -2.7904   -6.7164   -0.0851 H   0  0
   -4.8586   -5.5834    1.8460 H   0  0
   -4.1733   -4.7331    0.4251 H   0  0
   -4.1030   -3.9676    2.0469 H   0  0
  1  2  1  0
  2  3  2  0
  3  4  1  0
  4  5  2  0
  5  6  1  0
  1  6  2  0
  7  8  1  0
  7  9  1  0
  8  6  1  0
  5  9  1  0
 10 11  1  0
 11 12  1  0
 12 13  1  0
 13 14  1  0
 14 15  1  0
 10 15  1  0
  7 16  1  0
 16 14  1  0
 11 17  1  0
  3 18  1  0
 18 19  1  0
 18 20  1  0
 18 21  1  0
  1 22  1  0
  2 23  1  0
  4 24  1  0
  7 25  1  0
  9 26  1  0
  9 27  1  0
 10 28  1  0
 10 29  1  0
 12 30  1  0
 12 31  1  0
 13 32  1  0
 13 33  1  0
 15 34  1  0
 15 35  1  0
 16 36  1  0
 16 37  1  0
 17 38  1  0
 17 39  1  0
 17 40  1  0
 19 41  1  0
 19 42  1  0
 19 43  1  0
 20 44  1  0
 20 45  1  0
 20 46  1  0
 21 47  1  0
 21 48  1  0
 21 49  1  0
M  END
> <Name>
MFC2020_1g

> <Clean Energy>
49.8342

$$$$
MFC2020_1h
  SciTegic12132405553D

 44 47  0  0  0  0            999 V2000
   -2.7375   -1.4101    0.6528 C   0  0
   -1.4352   -1.4673    1.3604 C   0  0
   -0.5065   -0.5223    1.1396 C   0  0
   -0.7727    0.5622    0.1709 C   0  0
   -1.9486    0.5625   -0.4375 C   0  0
   -2.9385   -0.4081   -0.1915 C   0  0
   -3.9713    1.2823   -1.2224 C   0  0  2  0  0  0
   -4.0856   -0.1108   -0.9054 O   0  0
   -2.4463    1.4427   -1.4890 C   0  0
   -6.2161    4.0903    1.5202 C   0  0
   -7.1205    4.4527    0.4307 N   0  0
   -6.8437    3.8007   -0.8530 C   0  0
   -6.8525    2.2607   -0.6327 C   0  0
   -5.8567    1.8429    0.4160 N   0  0
   -6.2375    2.5419    1.6757 C   0  0
   -4.4026    2.0916    0.0600 C   0  0
   -8.2294    5.4278    0.6166 C   0  0
    1.0065   -0.5869    1.9699 Cl  0  0
  -10.3280    7.2883    0.9980 C   0  0
   -9.4575    6.9516    2.1071 C   0  0
   -8.4665    6.0790    1.9443 C   0  0
   -9.0542    5.7616   -0.3923 C   0  0
  -10.1383    6.7247   -0.1888 C   0  0
   -3.4941   -2.1287    0.8392 H   0  0
   -1.2414   -2.2488    2.0504 H   0  0
   -0.0391    1.2944   -0.0512 H   0  0
   -4.5741    1.6161   -2.0761 H   0  0
   -2.2179    0.9192   -2.4274 H   0  0
   -2.0564    2.4686   -1.5394 H   0  0
   -5.1996    4.4041    1.2560 H   0  0
   -6.5024    4.5509    2.4610 H   0  0
   -7.5760    4.0622   -1.6135 H   0  0
   -5.8427    4.0953   -1.1919 H   0  0
   -7.8549    1.9723   -0.2864 H   0  0
   -6.6446    1.7523   -1.5813 H   0  0
   -7.2621    2.2425    1.9379 H   0  0
   -5.5537    2.2404    2.4809 H   0  0
   -3.7961    1.7851    0.9201 H   0  0
   -4.2293    3.1561   -0.1271 H   0  0
  -11.1161    7.9848    1.1346 H   0  0
   -9.6112    7.4036    3.0540 H   0  0
   -7.8517    5.8565    2.7708 H   0  0
   -8.9398    5.3401   -1.3483 H   0  0
  -10.7776    6.9743   -0.9972 H   0  0
  1  2  1  0
  2  3  2  0
  3  4  1  0
  4  5  2  0
  5  6  1  0
  1  6  2  0
  7  8  1  0
  7  9  1  0
  8  6  1  0
  5  9  1  0
 10 11  1  0
 11 12  1  0
 12 13  1  0
 13 14  1  0
 14 15  1  0
 10 15  1  0
  7 16  1  0
 16 14  1  0
 11 17  1  0
  3 18  1  0
 19 20  1  0
 20 21  2  0
 22 23  1  0
 19 23  2  0
 21 17  1  0
 17 22  2  0
  1 24  1  0
  2 25  1  0
  4 26  1  0
  7 27  1  0
  9 28  1  0
  9 29  1  0
 10 30  1  0
 10 31  1  0
 12 32  1  0
 12 33  1  0
 13 34  1  0
 13 35  1  0
 15 36  1  0
 15 37  1  0
 16 38  1  0
 16 39  1  0
 19 40  1  0
 20 41  1  0
 21 42  1  0
 22 43  1  0
 23 44  1  0
M  END
> <Name>
MFC2020_1h

> <Clean Energy>
59.873

$$$$
MFC2020_1i
  SciTegic12132405553D

 47 50  0  0  0  0            999 V2000
    1.1083    3.1763   -0.6818 C   0  0
    2.5108    2.8160   -0.3694 C   0  0
    2.8175    1.5549   -0.0296 C   0  0
    1.7619    0.5254    0.0086 C   0  0
    0.5279    0.9041   -0.2853 C   0  0
    0.1941    2.2183   -0.6132 C   0  0
   -1.7265    1.2213   -0.0864 C   0  0  2  0  0  0
   -1.1594    2.3276   -0.7968 O   0  0
   -0.6749    0.0991   -0.4045 C   0  0
   -4.4225   -2.4945    0.9260 C   0  0
   -5.8176   -2.2866    0.6020 N   0  0
   -6.2931   -0.9382    0.8399 C   0  0
   -5.4274    0.0353    0.0203 C   0  0
   -4.0029   -0.0971    0.3929 N   0  0
   -3.5828   -1.5057    0.1008 C   0  0
   -3.2668    0.9758   -0.3924 C   0  0
   -6.6899   -3.3789    0.0933 C   0  0
    4.2305    1.1895    0.2922 C   0  0
   -8.3283   -5.4778   -0.8655 C   0  0
   -6.9297   -5.7321   -0.5803 C   0  0
   -6.1462   -4.7561   -0.1292 C   0  0
   -7.9908   -3.1748   -0.1814 C   0  0
   -8.8336   -4.2645   -0.6772 C   0  0
    0.8396    4.1729   -0.9234 H   0  0
    3.2700    3.5554   -0.4032 H   0  0
    1.9875   -0.4851    0.2352 H   0  0
   -1.6182    1.4705    0.9780 H   0  0
   -0.7279   -0.8147    0.1985 H   0  0
   -0.7669   -0.1553   -1.4690 H   0  0
   -4.2625   -2.2551    1.9862 H   0  0
   -4.0980   -3.5109    0.7210 H   0  0
   -7.3399   -0.8146    0.5697 H   0  0
   -6.1472   -0.6920    1.9006 H   0  0
   -5.5386   -0.1819   -1.0515 H   0  0
   -5.7618    1.0620    0.2215 H   0  0
   -3.7308   -1.7089   -0.9692 H   0  0
   -2.5404   -1.6528    0.3588 H   0  0
   -3.7687    1.9203   -0.1414 H   0  0
   -3.3968    0.7778   -1.4651 H   0  0
    4.3265    0.1064    0.4550 H   0  0
    4.5376    1.7422    1.1913 H   0  0
    4.8836    1.5323   -0.5227 H   0  0
   -8.9476   -6.2604   -1.2244 H   0  0
   -6.5288   -6.7021   -0.7321 H   0  0
   -5.1339   -4.9736    0.0685 H   0  0
   -8.4319   -2.2301   -0.0451 H   0  0
   -9.8572   -4.0834   -0.8869 H   0  0
  1  2  1  0
  2  3  2  0
  3  4  1  0
  4  5  2  0
  5  6  1  0
  1  6  2  0
  7  8  1  0
  7  9  1  0
  8  6  1  0
  5  9  1  0
 10 11  1  0
 11 12  1  0
 12 13  1  0
 13 14  1  0
 14 15  1  0
 10 15  1  0
  7 16  1  0
 16 14  1  0
 11 17  1  0
  3 18  1  0
 19 20  1  0
 20 21  2  0
 22 23  1  0
 19 23  2  0
 21 17  1  0
 17 22  2  0
  1 24  1  0
  2 25  1  0
  4 26  1  0
  7 27  1  0
  9 28  1  0
  9 29  1  0
 10 30  1  0
 10 31  1  0
 12 32  1  0
 12 33  1  0
 13 34  1  0
 13 35  1  0
 15 36  1  0
 15 37  1  0
 16 38  1  0
 16 39  1  0
 18 40  1  0
 18 41  1  0
 18 42  1  0
 19 43  1  0
 20 44  1  0
 21 45  1  0
 22 46  1  0
 23 47  1  0
M  END
> <Name>
MFC2020_1i

> <Clean Energy>
74.309

$$$$
MFC2020_1j
  SciTegic12132405553D

 47 50  0  0  0  0            999 V2000
    2.1298    4.0806   -4.1137 C   0  0
    1.8494    4.5576   -5.4890 C   0  0
    2.0811    3.7597   -6.5538 C   0  0
    2.6500    2.3965   -6.3139 C   0  0
    2.8830    2.0333   -5.0636 C   0  0
    2.6136    2.8583   -3.9636 C   0  0
    2.8708    0.8000   -3.1397 C   0  0  2  0  0  0
    2.8822    2.1869   -2.7841 O   0  0
    3.5069    0.8145   -4.5588 C   0  0
   -0.9658   -1.4020   -2.2730 C   0  0
   -0.3535   -2.2063   -1.2023 N   0  0
    1.0869   -1.9172   -1.0925 C   0  0
    1.2771   -0.4065   -0.7723 C   0  0
    0.6827    0.4569   -1.8521 N   0  0
   -0.7615    0.1062   -1.9483 C   0  0
    1.3627    0.3451   -3.2062 C   0  0
   -0.5366   -3.6224   -1.5042 C   0  0
    1.7895    4.2372   -7.9615 C   0  0
    1.2356    5.5924   -8.2041 C   0  0
    0.9819    6.0051   -9.4435 C   0  0
    1.2457    5.1293  -10.5759 C   0  0
    1.7417    3.9127  -10.3735 C   0  0
    2.0255    3.4456   -9.0154 C   0  0
    1.9197    4.6899   -3.2723 H   0  0
    1.4548    5.5261   -5.6207 H   0  0
    2.8900    1.7476   -7.1131 H   0  0
    3.4144    0.1391   -2.4531 H   0  0
    4.5692    1.0686   -4.4423 H   0  0
    3.4148   -0.1046   -5.1536 H   0  0
   -0.4998   -1.6552   -3.2334 H   0  0
   -2.0402   -1.6238   -2.3248 H   0  0
    1.5181   -2.5204   -0.2825 H   0  0
    1.5856   -2.1711   -2.0371 H   0  0
    0.7598   -0.1907    0.1728 H   0  0
    2.3432   -0.1837   -0.6528 H   0  0
   -1.2391    0.3126   -0.9803 H   0  0
   -1.2314    0.7244   -2.7255 H   0  0
    0.8087    0.9826   -3.9050 H   0  0
    1.3278   -0.6856   -3.5727 H   0  0
   -0.0890   -4.2275   -0.7034 H   0  0
   -0.0459   -3.8555   -2.4596 H   0  0
   -1.6104   -3.8443   -1.5783 H   0  0
    1.0375    6.2423   -7.3947 H   0  0
    0.5862    6.9753   -9.6067 H   0  0
    1.0423    5.4617  -11.5622 H   0  0
    1.9328    3.2769  -11.2004 H   0  0
    2.4184    2.4764   -8.8822 H   0  0
  1  2  1  0
  2  3  2  0
  3  4  1  0
  4  5  2  0
  5  6  1  0
  1  6  2  0
  7  8  1  0
  7  9  1  0
  8  6  1  0
  5  9  1  0
 10 11  1  0
 11 12  1  0
 12 13  1  0
 13 14  1  0
 14 15  1  0
 10 15  1  0
  7 16  1  0
 16 14  1  0
 11 17  1  0
  3 18  1  0
 19 20  2  0
 20 21  1  0
 21 22  2  0
 22 23  1  0
 18 19  1  0
 18 23  2  0
  1 24  1  0
  2 25  1  0
  4 26  1  0
  7 27  1  0
  9 28  1  0
  9 29  1  0
 10 30  1  0
 10 31  1  0
 12 32  1  0
 12 33  1  0
 13 34  1  0
 13 35  1  0
 15 36  1  0
 15 37  1  0
 16 38  1  0
 16 39  1  0
 17 40  1  0
 17 41  1  0
 17 42  1  0
 19 43  1  0
 20 44  1  0
 21 45  1  0
 22 46  1  0
 23 47  1  0
M  END
> <Name>
MFC2020_1j

> <Clean Energy>
39.1322

$$$$
MFC2020_1k
  SciTegic12132405553D

 54 58  0  0  0  0            999 V2000
    2.0811    4.9323   -3.4944 C   0  0
    1.9209    5.7695   -4.7085 C   0  0
    2.4081    5.3552   -5.8981 C   0  0
    3.1343    4.0490   -5.9557 C   0  0
    3.2483    3.3530   -4.8371 C   0  0
    2.7146    3.7765   -3.6128 C   0  0
    3.1583    1.6020   -3.3732 C   0  0  2  0  0  0
    2.9173    2.8100   -2.6420 O   0  0
    3.9712    2.1100   -4.5969 C   0  0
   -0.4099   -1.1266   -3.8736 C   0  0
    0.2464   -2.1499   -3.0523 N   0  0
    1.5672   -1.7855   -2.5354 C   0  0
    1.4546   -0.4346   -1.7704 C   0  0
    0.8940    0.6555   -2.6415 N   0  0
   -0.4583    0.2041   -3.0692 C   0  0
    1.7574    1.0402   -3.8286 C   0  0
   -0.3500   -3.4916   -2.8125 C   0  0
    2.2397    6.1988   -7.1450 C   0  0
    1.5323    7.5019   -7.0903 C   0  0
    1.3873    8.2369   -8.1902 C   0  0
    1.9223    7.7685   -9.4604 C   0  0
    2.5582    6.6030   -9.5242 C   0  0
    2.7250    5.7844   -8.3223 C   0  0
   -1.4557   -6.0554   -2.3486 C   0  0
   -0.1558   -5.7245   -1.7988 C   0  0
    0.3778   -4.5238   -2.0075 C   0  0
   -1.5537   -3.8296   -3.3091 C   0  0
   -2.1207   -5.1574   -3.0653 C   0  0
    1.6717    5.2360   -2.5651 H   0  0
    1.4088    6.6875   -4.6293 H   0  0
    3.5726    3.6976   -6.8510 H   0  0
    3.6953    0.8214   -2.8200 H   0  0
    4.9585    2.4228   -4.2310 H   0  0
    4.0973    1.4096   -5.4340 H   0  0
    0.1869   -0.9689   -4.7794 H   0  0
   -1.4204   -1.4144   -4.1561 H   0  0
    1.9697   -2.5441   -1.8703 H   0  0
    2.2494   -1.6463   -3.3832 H   0  0
    0.7705   -0.5785   -0.9224 H   0  0
    2.4407   -0.1480   -1.3865 H   0  0
   -1.0628    0.0339   -2.1669 H   0  0
   -0.9290    0.9873   -3.6789 H   0  0
    1.2136    1.8019   -4.3993 H   0  0
    1.9259    0.1742   -4.4763 H   0  0
    1.1372    7.8583   -6.1773 H   0  0
    0.8803    9.1669   -8.1410 H   0  0
    1.8046    8.3569  -10.3349 H   0  0
    2.9467    6.2642  -10.4509 H   0  0
    3.2327    4.8638   -8.4003 H   0  0
   -1.8751   -7.0145   -2.1786 H   0  0
    0.3734   -6.4440   -1.2271 H   0  0
    1.3246   -4.3155   -1.5944 H   0  0
   -2.1138   -3.1503   -3.8832 H   0  0
   -3.0711   -5.4042   -3.4657 H   0  0
  1  2  1  0
  2  3  2  0
  3  4  1  0
  4  5  2  0
  5  6  1  0
  1  6  2  0
  7  8  1  0
  7  9  1  0
  8  6  1  0
  5  9  1  0
 10 11  1  0
 11 12  1  0
 12 13  1  0
 13 14  1  0
 14 15  1  0
 10 15  1  0
  7 16  1  0
 16 14  1  0
 11 17  1  0
  3 18  1  0
 19 20  2  0
 20 21  1  0
 21 22  2  0
 22 23  1  0
 18 19  1  0
 18 23  2  0
 24 25  1  0
 25 26  2  0
 27 28  1  0
 24 28  2  0
 26 17  1  0
 17 27  2  0
  1 29  1  0
  2 30  1  0
  4 31  1  0
  7 32  1  0
  9 33  1  0
  9 34  1  0
 10 35  1  0
 10 36  1  0
 12 37  1  0
 12 38  1  0
 13 39  1  0
 13 40  1  0
 15 41  1  0
 15 42  1  0
 16 43  1  0
 16 44  1  0
 19 45  1  0
 20 46  1  0
 21 47  1  0
 22 48  1  0
 23 49  1  0
 24 50  1  0
 25 51  1  0
 26 52  1  0
 27 53  1  0
 28 54  1  0
M  END
> <Name>
MFC2020_1k

> <Clean Energy>
58.9106

$$$$
MFC2017_1a
  SciTegic12132405553D

 34 36  0  0  0  0            999 V2000
  -10.0854    7.3304  -12.3508 C   0  0
  -10.9936    6.1845  -12.5963 C   0  0
  -10.6418    4.9514  -12.1978 C   0  0
   -9.3590    4.7433  -11.4925 C   0  0
   -8.5906    5.8034  -11.2953 C   0  0
   -8.9382    7.0884  -11.7325 C   0  0
   -6.7705    7.1457  -11.3087 C   0  0  2  0  0  0
   -7.9249    7.9688  -11.4539 O   0  0
   -7.3331    5.9072  -10.5682 C   0  0
   -3.3957   10.8183  -11.1383 C   0  0
   -2.8966   10.5077  -12.4838 N   0  0
   -3.9883    9.9722  -13.3076 C   0  0
   -4.5315    8.6858  -12.6607 C   0  0
   -5.0422    8.9936  -11.2944 N   0  0
   -3.9416    9.5353  -10.4853 C   0  0
   -5.5522    7.7806  -10.5984 C   0  0
  -10.3321    8.3061  -12.6841 H   0  0
  -11.9163    6.3370  -13.0964 H   0  0
  -11.2890    4.1306  -12.3762 H   0  0
   -9.0777    3.7867  -11.1324 H   0  0
   -6.5043    6.8224  -12.3227 H   0  0
   -6.6872    5.0192  -10.5333 H   0  0
   -7.5946    6.2147   -9.5466 H   0  0
   -2.5752   11.2189  -10.5272 H   0  0
   -4.2001   11.5645  -11.2086 H   0  0
   -2.1458    9.8073  -12.4159 H   0  0
   -4.7944   10.7164  -13.3780 H   0  0
   -3.6098    9.7438  -14.3135 H   0  0
   -5.3361    8.2886  -13.2906 H   0  0
   -3.7224    7.9454  -12.5878 H   0  0
   -4.3135    9.7697   -9.4785 H   0  0
   -3.1391    8.7875  -10.4149 H   0  0
   -5.8644    8.0714   -9.5861 H   0  0
   -4.7424    7.0417  -10.5299 H   0  0
  1  2  1  0
  2  3  2  0
  3  4  1  0
  4  5  2  0
  5  6  1  0
  1  6  2  0
  7  8  1  0
  7  9  1  0
  8  6  1  0
  5  9  1  0
 10 11  1  0
 11 12  1  0
 12 13  1  0
 13 14  1  0
 14 15  1  0
 10 15  1  0
  7 16  1  0
 16 14  1  0
  1 17  1  0
  2 18  1  0
  3 19  1  0
  4 20  1  0
  7 21  1  0
  9 22  1  0
  9 23  1  0
 10 24  1  0
 10 25  1  0
 11 26  1  0
 12 27  1  0
 12 28  1  0
 13 29  1  0
 13 30  1  0
 15 31  1  0
 15 32  1  0
 16 33  1  0
 16 34  1  0
M  END
> <Name>
MFC2017_1a

> <Clean Energy>
37.9519004821777

$$$$
MFC2017_1b
  SciTegic12132405553D

 37 39  0  0  0  0            999 V2000
   -1.9488   -4.2460    0.4894 C   0  0
   -1.5346   -5.5019    1.1597 C   0  0
   -0.8112   -5.4529    2.2901 C   0  0
   -0.4501   -4.1448    2.8772 C   0  0
   -0.8518   -3.0563    2.2392 C   0  0
   -1.5831   -3.0993    1.0449 C   0  0
   -0.7802   -1.0475    1.2041 C   0  0  2  0  0  0
   -1.7957   -1.8277    0.5790 O   0  0
   -0.7137   -1.6588    2.6248 C   0  0
   -0.1975    3.3222    0.3877 C   0  0
    0.9814    3.0927   -0.4643 N   0  0
    1.3341    1.6625   -0.4913 C   0  0
    0.1292    0.8545   -1.0537 C   0  0
   -1.0973    1.0430   -0.2018 N   0  0
   -1.3939    2.5029   -0.1773 C   0  0
   -0.9856    0.4830    1.2065 C   0  0
    2.1084    3.8544    0.0643 C   0  0
   -2.4947   -4.2643   -0.4192 H   0  0
   -1.8004   -6.4391    0.7407 H   0  0
   -0.5114   -6.3506    2.7682 H   0  0
    0.0852   -4.0801    3.7899 H   0  0
    0.1551   -1.3087    0.6930 H   0  0
    0.1530   -1.3808    3.2398 H   0  0
   -1.6410   -1.3930    3.1504 H   0  0
    0.0282    3.0139    1.4161 H   0  0
   -0.4489    4.3913    0.3797 H   0  0
    2.2082    1.5158   -1.1397 H   0  0
    1.5770    1.3248    0.5248 H   0  0
   -0.0870    1.2249   -2.0654 H   0  0
    0.3899   -0.2087   -1.1124 H   0  0
   -1.5813    2.8413   -1.2061 H   0  0
   -2.2904    2.6787    0.4328 H   0  0
   -1.9227    0.6987    1.7369 H   0  0
   -0.1541    0.9490    1.7455 H   0  0
    2.9892    3.6937   -0.5731 H   0  0
    2.3273    3.5153    1.0866 H   0  0
    1.8528    4.9232    0.0781 H   0  0
  1  2  1  0
  2  3  2  0
  3  4  1  0
  4  5  2  0
  5  6  1  0
  1  6  2  0
  7  8  1  0
  7  9  1  0
  8  6  1  0
  5  9  1  0
 10 11  1  0
 11 12  1  0
 12 13  1  0
 13 14  1  0
 14 15  1  0
 10 15  1  0
  7 16  1  0
 16 14  1  0
 11 17  1  0
  1 18  1  0
  2 19  1  0
  3 20  1  0
  4 21  1  0
  7 22  1  0
  9 23  1  0
  9 24  1  0
 10 25  1  0
 10 26  1  0
 12 27  1  0
 12 28  1  0
 13 29  1  0
 13 30  1  0
 15 31  1  0
 15 32  1  0
 16 33  1  0
 16 34  1  0
 17 35  1  0
 17 36  1  0
 17 37  1  0
M  END
> <Name>
MFC2017_1b

> <Clean Energy>
38.915

$$$$
MFC2017_1c
  SciTegic12132405553D

 41 43  0  0  0  0            999 V2000
   -5.6534   -1.8561   -5.0349 C   0  0
   -6.8996   -2.6542   -4.9501 C   0  0
   -7.3796   -3.0281   -3.7521 C   0  0
   -6.6499   -2.6645   -2.5180 C   0  0
   -5.5395   -1.9562   -2.6512 C   0  0
   -5.0451   -1.5373   -3.9013 C   0  0
   -3.9910   -0.2973   -2.3728 C   0  0  2  0  0  0
   -3.9218   -0.7518   -3.7300 O   0  0
   -4.5798   -1.5344   -1.6336 C   0  0
   -3.3435    3.3548   -1.3441 C   0  0
   -4.3517    4.4270   -1.4227 N   0  0
   -5.6679    3.8545   -1.8226 C   0  0
   -5.5150    3.1699   -3.2108 C   0  0
   -4.5123    2.0736   -3.1789 N   0  0
   -3.2102    2.6746   -2.7354 C   0  0
   -5.0029    0.9119   -2.3358 C   0  0
   -4.4159    5.0942   -0.1012 C   0  0
   -5.3770    6.2624   -0.0729 C   0  0
   -5.1545    7.2693    0.7670 C   0  0
   -5.2778   -1.5246   -5.9694 H   0  0
   -7.4192   -2.9206   -5.8353 H   0  0
   -8.2732   -3.5956   -3.6928 H   0  0
   -6.9866   -2.9842   -1.5651 H   0  0
   -3.0344    0.0231   -1.9417 H   0  0
   -3.8083   -2.3164   -1.6311 H   0  0
   -4.9411   -1.3750   -0.6084 H   0  0
   -2.3760    3.7907   -1.0618 H   0  0
   -3.6446    2.6203   -0.5848 H   0  0
   -5.9966    3.1280   -1.0688 H   0  0
   -6.4153    4.6515   -1.9030 H   0  0
   -6.4817    2.7628   -3.5372 H   0  0
   -5.1804    3.9325   -3.9278 H   0  0
   -2.4316    1.9049   -2.6989 H   0  0
   -2.9152    3.4448   -3.4613 H   0  0
   -5.9728    0.6019   -2.7415 H   0  0
   -5.1425    1.2185   -1.2939 H   0  0
   -4.7403    4.3531    0.6429 H   0  0
   -3.4217    5.4573    0.1933 H   0  0
   -6.2083    6.3019   -0.7277 H   0  0
   -4.3116    7.2452    1.4109 H   0  0
   -5.8164    8.0982    0.7889 H   0  0
  1  2  1  0
  2  3  2  0
  3  4  1  0
  4  5  2  0
  5  6  1  0
  1  6  2  0
  7  8  1  0
  7  9  1  0
  8  6  1  0
  5  9  1  0
 10 11  1  0
 11 12  1  0
 12 13  1  0
 13 14  1  0
 14 15  1  0
 10 15  1  0
  7 16  1  0
 16 14  1  0
 11 17  1  0
 17 18  1  0
 18 19  2  0
  1 20  1  0
  2 21  1  0
  3 22  1  0
  4 23  1  0
  7 24  1  0
  9 25  1  0
  9 26  1  0
 10 27  1  0
 10 28  1  0
 12 29  1  0
 12 30  1  0
 13 31  1  0
 13 32  1  0
 15 33  1  0
 15 34  1  0
 16 35  1  0
 16 36  1  0
 17 37  1  0
 17 38  1  0
 18 39  1  0
 19 40  1  0
 19 41  1  0
M  END
> <Name>
MFC2017_1c

> <Clean Energy>
50.3695

$$$$
MFC2017_1d
  SciTegic12132405553D

 44 47  0  0  0  0            999 V2000
   -2.6059   -3.4892    0.1744 C   0  0
   -3.4077   -4.1210    1.2505 C   0  0
   -2.8574   -4.3511    2.4541 C   0  0
   -1.4429   -3.9978    2.6986 C   0  0
   -0.7712   -3.4422    1.7021 C   0  0
   -1.3479   -3.1717    0.4464 C   0  0
    0.5337   -1.9722    0.5352 C   0  0  2  0  0  0
   -0.4375   -2.5192   -0.3658 O   0  0
    0.6388   -3.0761    1.6273 C   0  0
   -0.0399    2.3829    1.6054 C   0  0
    1.1952    2.7304    0.9041 N   0  0
    1.9048    1.6024    0.2915 C   0  0
    0.9242    0.8604   -0.6615 C   0  0
   -0.3117    0.3975    0.0615 N   0  0
   -0.9654    1.6150    0.6176 C   0  0
   -0.0770   -0.6487    1.1356 C   0  0
    1.7046    4.1276    0.8491 C   0  0
    2.6525    6.7933    0.7655 C   0  0
    1.4157    6.4931    1.4594 C   0  0
    0.9565    5.2455    1.5079 C   0  0
    2.8487    4.4388    0.2137 C   0  0
    3.3339    5.8197    0.1736 C   0  0
   -3.0332   -3.2704   -0.7706 H   0  0
   -4.4204   -4.3807    1.0731 H   0  0
   -3.4330   -4.7991    3.2238 H   0  0
   -0.9749   -4.2088    3.6260 H   0  0
    1.5088   -1.7453    0.0866 H   0  0
    1.1328   -3.9453    1.1723 H   0  0
    1.1584   -2.8065    2.5571 H   0  0
    0.2048    1.7220    2.4450 H   0  0
   -0.5600    3.2603    1.9780 H   0  0
    2.7807    1.9229   -0.2681 H   0  0
    2.2110    0.9061    1.0820 H   0  0
    0.6164    1.5634   -1.4482 H   0  0
    1.4365    0.0099   -1.1260 H   0  0
   -1.2019    2.2888   -0.2181 H   0  0
   -1.8954    1.3288    1.1276 H   0  0
   -1.0442   -0.8600    1.6063 H   0  0
    0.6068   -0.2673    1.9004 H   0  0
    3.0130    7.7901    0.7308 H   0  0
    0.8736    7.2728    1.9315 H   0  0
    0.0545    5.0612    2.0208 H   0  0
    3.4202    3.6994   -0.2673 H   0  0
    4.2384    6.0442   -0.3325 H   0  0
  1  2  1  0
  2  3  2  0
  3  4  1  0
  4  5  2  0
  5  6  1  0
  1  6  2  0
  7  8  1  0
  7  9  1  0
  8  6  1  0
  5  9  1  0
 10 11  1  0
 11 12  1  0
 12 13  1  0
 13 14  1  0
 14 15  1  0
 10 15  1  0
  7 16  1  0
 16 14  1  0
 11 17  1  0
 18 19  1  0
 19 20  2  0
 21 22  1  0
 18 22  2  0
 20 17  1  0
 17 21  2  0
  1 23  1  0
  2 24  1  0
  3 25  1  0
  4 26  1  0
  7 27  1  0
  9 28  1  0
  9 29  1  0
 10 30  1  0
 10 31  1  0
 12 32  1  0
 12 33  1  0
 13 34  1  0
 13 35  1  0
 15 36  1  0
 15 37  1  0
 16 38  1  0
 16 39  1  0
 18 40  1  0
 19 41  1  0
 20 42  1  0
 21 43  1  0
 22 44  1  0
M  END
> <Name>
MFC2017_1d

> <Clean Energy>
59.9518

$$$$
MFC2017_1e
  SciTegic12132405553D

 37 39  0  0  0  0            999 V2000
   -1.1105   -3.5253   -0.5976 C   0  0
   -1.4541   -4.9320   -0.2817 C   0  0
   -1.3754   -5.3729    0.9838 C   0  0
   -0.9705   -4.4472    2.0648 C   0  0
   -0.6832   -3.1977    1.7242 C   0  0
   -0.7364   -2.7399    0.4009 C   0  0
    0.3850   -1.1857    1.5460 C   0  0  2  0  0  0
   -0.3384   -1.4265    0.3377 O   0  0
   -0.3832   -2.0564    2.5749 C   0  0
    1.6750    3.0484    2.4837 C   0  0
    3.1114    2.8074    2.3074 N   0  0
    3.3710    1.3679    2.0796 C   0  0
    2.6074    0.9091    0.7882 C   0  0
    1.1274    1.1493    0.9297 N   0  0
    0.9359    2.5937    1.2066 C   0  0
    0.4588    0.2934    1.9776 C   0  0
    3.8066    3.2585    3.5096 C   0  0
   -1.7831   -7.0107    1.3537 Cl  0  0
   -1.1455   -3.1650   -1.5944 H   0  0
   -1.7578   -5.5904   -1.0557 H   0  0
   -0.9538   -4.7570    3.0779 H   0  0
    1.3850   -1.6197    1.3982 H   0  0
    0.1060   -2.2334    3.5431 H   0  0
   -1.3562   -1.5790    2.7443 H   0  0
    1.3116    2.4953    3.3596 H   0  0
    1.5037    4.1219    2.6385 H   0  0
    4.4500    1.2085    1.9464 H   0  0
    3.0262    0.7949    2.9498 H   0  0
    2.9799    1.5083   -0.0544 H   0  0
    2.8051   -0.1521    0.5904 H   0  0
    1.3355    3.1693    0.3604 H   0  0
   -0.1391    2.7945    1.3074 H   0  0
   -0.5783    0.6339    2.0824 H   0  0
    0.9653    0.3869    2.9449 H   0  0
    4.8861    3.0984    3.3925 H   0  0
    3.4402    2.6906    4.3758 H   0  0
    3.6069    4.3304    3.6628 H   0  0
  1  2  1  0
  2  3  2  0
  3  4  1  0
  4  5  2  0
  5  6  1  0
  1  6  2  0
  7  8  1  0
  7  9  1  0
  8  6  1  0
  5  9  1  0
 10 11  1  0
 11 12  1  0
 12 13  1  0
 13 14  1  0
 14 15  1  0
 10 15  1  0
  7 16  1  0
 16 14  1  0
 11 17  1  0
  3 18  1  0
  1 19  1  0
  2 20  1  0
  4 21  1  0
  7 22  1  0
  9 23  1  0
  9 24  1  0
 10 25  1  0
 10 26  1  0
 12 27  1  0
 12 28  1  0
 13 29  1  0
 13 30  1  0
 15 31  1  0
 15 32  1  0
 16 33  1  0
 16 34  1  0
 17 35  1  0
 17 36  1  0
 17 37  1  0
M  END
> <Name>
MFC2017_1e

> <Clean Energy>
40.8081

$$$$
MFC2017_1f
  SciTegic12132405553D

 40 42  0  0  0  0            999 V2000
   -1.1297   -3.4551   -0.5361 C   0  0
   -1.3041   -4.8824   -0.1783 C   0  0
   -1.2868   -5.2575    1.1100 C   0  0
   -1.1183   -4.2457    2.1710 C   0  0
   -0.9728   -2.9849    1.7951 C   0  0
   -0.9621   -2.5870    0.4516 C   0  0
   -0.0975   -0.9099    1.6000 C   0  0  2  0  0  0
   -0.7241   -1.2400    0.3634 O   0  0
   -0.8730   -1.7855    2.6140 C   0  0
    1.4073    3.2024    2.5621 C   0  0
    2.8150    2.8315    2.3407 N   0  0
    2.9337    1.3945    2.0381 C   0  0
    2.1116    1.0776    0.7556 C   0  0
    0.6584    1.4231    0.9418 N   0  0
    0.5922    2.8731    1.2780 C   0  0
   -0.0658    0.5858    1.9828 C   0  0
    3.5835    3.1329    3.5443 C   0  0
   -1.4571   -6.6975    1.4715 C   0  0
   -1.1109   -3.1424   -1.5488 H   0  0
   -1.4316   -5.6092   -0.9397 H   0  0
   -1.1421   -4.5147    3.1959 H   0  0
    0.9218   -1.3115    1.5355 H   0  0
   -0.4331   -1.8847    3.6157 H   0  0
   -1.8925   -1.3847    2.6957 H   0  0
    1.0127    2.6459    3.4214 H   0  0
    1.3438    4.2788    2.7708 H   0  0
    3.9895    1.1448    1.8675 H   0  0
    2.5561    0.8081    2.8861 H   0  0
    2.5136    1.6865   -0.0660 H   0  0
    2.2189    0.0174    0.4981 H   0  0
    1.0231    3.4474    0.4458 H   0  0
   -0.4582    3.1639    1.4156 H   0  0
   -1.1029    0.9412    2.0481 H   0  0
    0.4097    0.6882    2.9638 H   0  0
    4.6371    2.8661    3.3815 H   0  0
    3.1822    2.5506    4.3856 H   0  0
    3.5048    4.2058    3.7688 H   0  0
   -1.1775   -6.8697    2.5208 H   0  0
   -0.8714   -7.3213    0.7814 H   0  0
   -2.5132   -6.9645    1.3251 H   0  0
  1  2  1  0
  2  3  2  0
  3  4  1  0
  4  5  2  0
  5  6  1  0
  1  6  2  0
  7  8  1  0
  7  9  1  0
  8  6  1  0
  5  9  1  0
 10 11  1  0
 11 12  1  0
 12 13  1  0
 13 14  1  0
 14 15  1  0
 10 15  1  0
  7 16  1  0
 16 14  1  0
 11 17  1  0
  3 18  1  0
  1 19  1  0
  2 20  1  0
  4 21  1  0
  7 22  1  0
  9 23  1  0
  9 24  1  0
 10 25  1  0
 10 26  1  0
 12 27  1  0
 12 28  1  0
 13 29  1  0
 13 30  1  0
 15 31  1  0
 15 32  1  0
 16 33  1  0
 16 34  1  0
 17 35  1  0
 17 36  1  0
 17 37  1  0
 18 38  1  0
 18 39  1  0
 18 40  1  0
M  END
> <Name>
MFC2017_1f

> <Clean Energy>
50.5305

$$$$
MFC2017_1g
  SciTegic12132405553D

 41 43  0  0  0  0            999 V2000
   -1.7471   -3.4046   -0.8854 C   0  0
   -1.8681   -4.7815   -0.3526 C   0  0
   -2.0301   -4.9939    0.9639 C   0  0
   -2.1104   -3.8017    1.8883 C   0  0
   -2.0000   -2.6013    1.3420 C   0  0
   -1.8050   -2.3974   -0.0278 C   0  0
   -1.2618   -0.4986    0.9610 C   0  0  2  0  0  0
   -1.6568   -1.0591   -0.2870 O   0  0
   -2.1220   -1.2937    1.9715 C   0  0
   -0.2400    3.8349    1.4879 C   0  0
    1.2086    3.5751    1.5353 N   0  0
    1.4806    2.1282    1.4786 C   0  0
    0.8996    1.5555    0.1538 C   0  0
   -0.5863    1.7808    0.0691 N   0  0
   -0.8130    3.2503    0.1643 C   0  0
   -1.4032    1.0320    1.1090 C   0  0
    1.7506    4.1164    2.7776 C   0  0
   -2.1311   -6.3460    1.4078 O   0  0
   -2.3088   -6.5093    2.8230 C   0  0
   -1.5899   -3.2317   -1.9195 H   0  0
   -1.8153   -5.6078   -1.0148 H   0  0
   -2.2773   -3.8964    2.9296 H   0  0
   -0.2184   -0.8041    1.1098 H   0  0
   -1.8422   -1.2076    3.0303 H   0  0
   -3.1683   -0.9865    1.8392 H   0  0
   -0.7242    3.3692    2.3553 H   0  0
   -0.4159    4.9186    1.5166 H   0  0
    2.5656    1.9609    1.5054 H   0  0
    1.0171    1.6333    2.3422 H   0  0
    1.3812    2.0788   -0.6839 H   0  0
    1.1251    0.4851    0.0813 H   0  0
   -0.2987    3.7408   -0.6740 H   0  0
   -1.8905    3.4540    0.0998 H   0  0
   -2.4609    1.2904    0.9656 H   0  0
   -1.0994    1.3174    2.1216 H   0  0
    2.8335    3.9329    2.8144 H   0  0
    1.2646    3.6221    3.6306 H   0  0
    1.5576    5.1974    2.8201 H   0  0
   -2.3742   -7.5808    3.0596 H   0  0
   -3.2365   -6.0095    3.1395 H   0  0
   -1.4525   -6.0704    3.3564 H   0  0
  1  2  1  0
  2  3  2  0
  3  4  1  0
  4  5  2  0
  5  6  1  0
  1  6  2  0
  7  8  1  0
  7  9  1  0
  8  6  1  0
  5  9  1  0
 10 11  1  0
 11 12  1  0
 12 13  1  0
 13 14  1  0
 14 15  1  0
 10 15  1  0
  7 16  1  0
 16 14  1  0
 11 17  1  0
  3 18  1  0
 18 19  1  0
  1 20  1  0
  2 21  1  0
  4 22  1  0
  7 23  1  0
  9 24  1  0
  9 25  1  0
 10 26  1  0
 10 27  1  0
 12 28  1  0
 12 29  1  0
 13 30  1  0
 13 31  1  0
 15 32  1  0
 15 33  1  0
 16 34  1  0
 16 35  1  0
 17 36  1  0
 17 37  1  0
 17 38  1  0
 19 39  1  0
 19 40  1  0
 19 41  1  0
M  END
> <Name>
MFC2017_1g

> <Clean Energy>
39.9844

$$$$
MFC2017_1h
  SciTegic12132405553D

 49 51  0  0  0  0            999 V2000
   -0.4665   -3.4058   -0.5538 C   0  0
   -1.5409   -4.2829   -0.0366 C   0  0
   -1.5492   -4.6759    1.2548 C   0  0
   -0.4237   -4.2246    2.1495 C   0  0
    0.5060   -3.4473    1.6194 C   0  0
    0.4843   -3.0235    0.2830 C   0  0
    1.9316   -1.6848    1.3297 C   0  0  2  0  0  0
    1.5364   -2.1592    0.0380 O   0  0
    1.7362   -2.9437    2.2211 C   0  0
    0.2950    2.3442    2.5151 C   0  0
    1.6157    2.9904    2.4368 N   0  0
    2.6619    2.0013    2.1244 C   0  0
    2.3354    1.3335    0.7576 C   0  0
    0.9997    0.6414    0.7961 N   0  0
   -0.0174    1.6713    1.1470 C   0  0
    0.9222   -0.5457    1.7412 C   0  0
    1.9173    3.6182    3.7193 C   0  0
   -2.6936   -5.5899    1.7696 C   0  0
   -2.5583   -5.9029    3.2683 C   0  0
   -2.6830   -6.9065    0.9754 C   0  0
   -4.0491   -4.9055    1.5170 C   0  0
   -0.4754   -3.0682   -1.5584 H   0  0
   -2.3146   -4.5913   -0.6930 H   0  0
   -0.3422   -4.5299    3.1570 H   0  0
    2.9554   -1.2950    1.3890 H   0  0
    2.5079   -3.6722    1.9377 H   0  0
    1.7609   -2.7906    3.3087 H   0  0
    0.2996    1.5974    3.3188 H   0  0
   -0.4684    3.1030    2.7335 H   0  0
    3.6342    2.5080    2.0616 H   0  0
    2.6998    1.2436    2.9181 H   0  0
    2.2993    2.1219   -0.0070 H   0  0
    3.1245    0.6199    0.4952 H   0  0
   -0.0080    2.4528    0.3744 H   0  0
   -1.0101    1.2015    1.1778 H   0  0
   -0.1058   -0.9248    1.7079 H   0  0
    1.1469   -0.2384    2.7673 H   0  0
    2.8986    4.1098    3.6638 H   0  0
    1.9352    2.8488    4.5040 H   0  0
    1.1438    4.3633    3.9523 H   0  0
   -3.3892   -6.5513    3.5786 H   0  0
   -2.5898   -4.9663    3.8431 H   0  0
   -1.6042   -6.4173    3.4521 H   0  0
   -3.5064   -7.5453    1.3236 H   0  0
   -1.7252   -7.4203    1.1371 H   0  0
   -2.8120   -6.6971   -0.0952 H   0  0
   -4.8567   -5.5663    1.8611 H   0  0
   -4.1740   -4.7073    0.4440 H   0  0
   -4.0869   -3.9585    2.0730 H   0  0
  1  2  1  0
  2  3  2  0
  3  4  1  0
  4  5  2  0
  5  6  1  0
  1  6  2  0
  7  8  1  0
  7  9  1  0
  8  6  1  0
  5  9  1  0
 10 11  1  0
 11 12  1  0
 12 13  1  0
 13 14  1  0
 14 15  1  0
 10 15  1  0
  7 16  1  0
 16 14  1  0
 11 17  1  0
  3 18  1  0
 18 19  1  0
 18 20  1  0
 18 21  1  0
  1 22  1  0
  2 23  1  0
  4 24  1  0
  7 25  1  0
  9 26  1  0
  9 27  1  0
 10 28  1  0
 10 29  1  0
 12 30  1  0
 12 31  1  0
 13 32  1  0
 13 33  1  0
 15 34  1  0
 15 35  1  0
 16 36  1  0
 16 37  1  0
 17 38  1  0
 17 39  1  0
 17 40  1  0
 19 41  1  0
 19 42  1  0
 19 43  1  0
 20 44  1  0
 20 45  1  0
 20 46  1  0
 21 47  1  0
 21 48  1  0
 21 49  1  0
M  END
> <Name>
MFC2017_1h

> <Clean Energy>
49.83

$$$$
MFC2017_1i
  DSViewer          3D                             0

 44 47  0  0  0  0  0  0  0  0999 V2000
   -2.7208   -1.4084    0.6456 C   0  0
   -1.4182   -1.4581    1.3531 C   0  0
   -0.4966   -0.5055    1.1356 C   0  0
   -0.7708    0.5801    0.1705 C   0  0
   -1.9466    0.5736   -0.4380 C   0  0
   -2.9294   -0.4051   -0.1954 C   0  0
   -3.9743    1.2812   -1.2208 C   0  0  2  0  0  0
   -4.0787   -0.1138   -0.9085 O   0  0
   -2.4505    1.4535   -1.4866 C   0  0
   -6.2365    4.0663    1.5299 C   0  0
   -7.1369    4.4332    0.4377 N   0  0
   -6.8606    3.7803   -0.8464 C   0  0
   -6.8620    2.2399   -0.6286 C   0  0
   -5.8643    1.8246    0.4185 N   0  0
   -6.2514    2.5172    1.6791 C   0  0
   -4.4115    2.0832    0.0640 C   0  0
   -8.2316    5.4250    0.6175 C   0  0
    1.0169   -0.5614    1.9659 Cl  0  0
  -10.3022    7.3191    0.9869 C   0  0
   -9.4409    6.9716    2.0999 C   0  0
   -8.4631    6.0832    1.9428 C   0  0
   -9.0476    5.7691   -0.3951 C   0  0
  -10.1172    6.7495   -0.1978 C   0  0
   -3.4721   -2.1332    0.8295 H   0  0
   -1.2185   -2.2404    2.0406 H   0  0
   -0.0427    1.3186   -0.0491 H   0  0
   -4.5793    1.6137   -2.0736 H   0  0
   -2.2182    0.9348   -2.4266 H   0  0
   -2.0681    2.4823   -1.5335 H   0  0
   -5.2201    4.3857    1.2719 H   0  0
   -6.5284    4.5215    2.4717 H   0  0
   -7.5952    4.0395   -1.6056 H   0  0
   -5.8617    4.0798   -1.1873 H   0  0
   -7.8628    1.9458   -0.2823 H   0  0
   -6.6522    1.7345   -1.5784 H   0  0
   -7.2752    2.2117    1.9374 H   0  0
   -5.5685    2.2161    2.4852 H   0  0
   -3.8034    1.7779    0.9235 H   0  0
   -4.2449    3.1493   -0.1196 H   0  0
  -11.0796    8.0283    1.1190 H   0  0
   -9.5909    7.4284    3.0451 H   0  0
   -7.8548    5.8532    2.7720 H   0  0
   -8.9363    5.3437   -1.3497 H   0  0
  -10.7497    7.0072   -1.0091 H   0  0
  1  2  1  0  0  0
  2  3  2  0  0  0
  3  4  1  0  0  0
  4  5  2  0  0  0
  5  6  1  0  0  0
  1  6  2  0  0  0
  7  8  1  0  0  0
  7  9  1  0  0  0
  8  6  1  0  0  0
  5  9  1  0  0  0
 10 11  1  0  0  0
 11 12  1  0  0  0
 12 13  1  0  0  0
 13 14  1  0  0  0
 14 15  1  0  0  0
 10 15  1  0  0  0
  7 16  1  0  0  0
 16 14  1  0  0  0
 11 17  1  0  0  0
  3 18  1  0  0  0
 19 20  1  0  0  0
 20 21  2  0  0  0
 22 23  1  0  0  0
 19 23  2  0  0  0
 21 17  1  0  0  0
 17 22  2  0  0  0
  1 24  1  0  0  0
  2 25  1  0  0  0
  4 26  1  0  0  0
  7 27  1  0  0  0
  9 28  1  0  0  0
  9 29  1  0  0  0
 10 30  1  0  0  0
 10 31  1  0  0  0
 12 32  1  0  0  0
 12 33  1  0  0  0
 13 34  1  0  0  0
 13 35  1  0  0  0
 15 36  1  0  0  0
 15 37  1  0  0  0
 16 38  1  0  0  0
 16 39  1  0  0  0
 19 40  1  0  0  0
 20 41  1  0  0  0
 21 42  1  0  0  0
 22 43  1  0  0  0
 23 44  1  0  0  0
M  END
> <Clean Energy>
2599.15

$$$$
MFC2016_1a
  DSViewer          3D                             0

 20 21  0  0  0  0  0  0  0  0999 V2000
   -3.6053   -8.7493    5.6174 C   0  0
   -4.9793   -9.1947    5.6659 C   0  0
   -5.2767  -10.2381    6.4488 C   0  0
   -4.2011  -10.9141    7.2438 C   0  0
   -2.9401  -10.4760    7.1725 C   0  0
   -2.6666   -9.3465    6.3202 C   0  0
   -1.9126   -7.3411    5.6224 C   0  0  1  0  0  0
   -3.0912   -7.6786    4.9177 O   0  0
   -1.3804   -8.7320    6.0005 C   0  0
   -0.8893   -6.4575    4.8994 C   0  0
   -1.7735   -4.6148    4.4220 I   0  0
   -5.7309   -8.7055    5.1003 H   0  0
   -6.2762  -10.5875    6.5071 H   0  0
   -4.4396  -11.7435    7.8601 H   0  0
   -2.1649  -10.9466    7.7216 H   0  0
   -2.2458   -6.8468    6.5456 H   0  0
   -1.0317   -9.2222    5.0811 H   0  0
   -0.5883   -8.7685    6.7610 H   0  0
   -0.0226   -6.2914    5.5547 H   0  0
   -0.5621   -6.9587    3.9773 H   0  0
  1  2  1  0  0  0
  2  3  2  0  0  0
  3  4  1  0  0  0
  4  5  2  0  0  0
  5  6  1  0  0  0
  1  6  2  0  0  0
  7  8  1  0  0  0
  7  9  1  0  0  0
  8  1  1  0  0  0
  6  9  1  0  0  0
  7 10  1  0  0  0
 10 11  1  0  0  0
  2 12  1  0  0  0
  3 13  1  0  0  0
  4 14  1  0  0  0
  5 15  1  0  0  0
  7 16  1  0  0  0
  9 17  1  0  0  0
  9 18  1  0  0  0
 10 19  1  0  0  0
 10 20  1  0  0  0
M  END
> <Clean Energy>
0

$$$$
MFC2016_1b
  DSViewer          3D                             0

 26 27  0  0  0  0  0  0  0  0999 V2000
    1.8358    0.6159    1.4008 C   0  0
    0.5665   -0.1219    1.6276 C   0  0
    0.6546   -1.4481    1.7836 C   0  0
    1.9760   -2.1412    1.7276 C   0  0
    3.0958   -1.4459    1.5197 C   0  0
    2.9887   -0.0224    1.3579 C   0  0
    3.3869    2.1761    1.6339 C   0  0  1  0  0  0
    2.0459    1.9798    1.2509 O   0  0
    4.0490    0.9317    1.0384 C   0  0
    4.0476    3.4950    1.2199 C   0  0
    3.0017    5.0965    2.0838 I   0  0
    2.0408   -3.5884    1.8963 C   0  0
    3.1312   -4.1683    1.8488 O   0  0
   -0.7283    0.4774    1.6949 O   0  0
   -0.7586    1.8989    1.5224 C   0  0
   -0.2260   -2.0148    1.9491 H   0  0
    4.0376   -1.9297    1.4709 H   0  0
    3.4059    2.0762    2.7280 H   0  0
    4.0428    1.0363   -0.0552 H   0  0
    5.0672    0.7023    1.3813 H   0  0
    5.0909    3.5059    1.5662 H   0  0
    4.0228    3.5870    0.1248 H   0  0
    1.1510   -4.1424    2.0597 H   0  0
   -1.7972    2.2518    1.5918 H   0  0
   -0.3500    2.1597    0.5348 H   0  0
   -0.1570    2.3792    2.3088 H   0  0
  1  2  1  0  0  0
  2  3  2  0  0  0
  3  4  1  0  0  0
  4  5  2  0  0  0
  5  6  1  0  0  0
  1  6  2  0  0  0
  7  8  1  0  0  0
  7  9  1  0  0  0
  8  1  1  0  0  0
  6  9  1  0  0  0
  7 10  1  0  0  0
 10 11  1  0  0  0
  4 12  1  0  0  0
 12 13  2  0  0  0
 14 15  1  0  0  0
  2 14  1  0  0  0
  3 16  1  0  0  0
  5 17  1  0  0  0
  7 18  1  0  0  0
  9 19  1  0  0  0
  9 20  1  0  0  0
 10 21  1  0  0  0
 10 22  1  0  0  0
 12 23  1  0  0  0
 15 24  1  0  0  0
 15 25  1  0  0  0
 15 26  1  0  0  0
M  END
> <Clean Energy>
6.92577e+10

$$$$
MFC2016_1d
  DSViewer          3D                             0

 24 25  0  0  0  0  0  0  0  0999 V2000
    1.2665    2.5798    1.2757 C   0  0
   -0.0880    2.1484    1.0690 C   0  0
   -0.4674    0.9813    1.5989 C   0  0
    0.4981    0.1424    2.3875 C   0  0
    1.7640    0.5859    2.5555 C   0  0
    2.1169    1.8537    1.9661 C   0  0
    2.9230    3.9478    1.7543 C   0  0  1  0  0  0
    1.8474    3.7580    0.8577 O   0  0
    3.4236    2.5065    1.9296 C   0  0
    4.0154    4.9416    1.3426 C   0  0
    3.1709    6.8489    1.1100 I   0  0
   -0.0013   -1.0989    2.9139 O   0  0
    0.9305   -1.8979    3.6667 C   0  0
   -0.7695    2.7421    0.5148 H   0  0
   -1.4628    0.6429    1.4612 H   0  0
    2.4959    0.0438    3.0920 H   0  0
    2.4701    4.2640    2.7044 H   0  0
    3.8910    2.1937    0.9858 H   0  0
    4.1154    2.3213    2.7627 H   0  0
    4.7913    4.9745    2.1207 H   0  0
    4.4623    4.6183    0.3916 H   0  0
    0.4289   -2.8134    4.0111 H   0  0
    1.2868   -1.3279    4.5378 H   0  0
    1.7850   -2.1688    3.0286 H   0  0
  1  2  1  0  0  0
  2  3  2  0  0  0
  3  4  1  0  0  0
  4  5  2  0  0  0
  5  6  1  0  0  0
  1  6  2  0  0  0
  7  8  1  0  0  0
  7  9  1  0  0  0
  8  1  1  0  0  0
  6  9  1  0  0  0
  7 10  1  0  0  0
 10 11  1  0  0  0
  4 12  1  0  0  0
 12 13  1  0  0  0
  2 14  1  0  0  0
  3 15  1  0  0  0
  5 16  1  0  0  0
  7 17  1  0  0  0
  9 18  1  0  0  0
  9 19  1  0  0  0
 10 20  1  0  0  0
 10 21  1  0  0  0
 13 22  1  0  0  0
 13 23  1  0  0  0
 13 24  1  0  0  0
M  END
> <Clean Energy>
33499.2

$$$$
MFC2016_1c
  DSViewer          3D                             0

 23 24  0  0  0  0  0  0  0  0999 V2000
   -3.0999   -0.3392   -0.6233 C   0  0
   -4.4470   -0.8618   -0.5830 C   0  0
   -4.6139   -2.1486   -0.2580 C   0  0
   -3.4272   -3.0061    0.0493 C   0  0
   -2.1957   -2.4909    0.0004 C   0  0
   -2.0620   -1.1003   -0.3491 C   0  0
   -1.4412    1.0637   -0.2663 C   0  0  1  0  0  0
   -2.7058    0.9544   -0.8896 O   0  0
   -0.8435   -0.3221   -0.5550 C   0  0
   -0.5443    2.2310   -0.6946 C   0  0
   -1.5098    4.0451   -0.2679 I   0  0
   -3.6197   -4.4448    0.4061 C   0  0
   -5.2789   -0.2418   -0.8005 H   0  0
   -5.5892   -2.5625   -0.2177 H   0  0
   -1.3443   -3.0872    0.2079 H   0  0
   -1.6423    1.1244    0.8124 H   0  0
   -0.6266   -0.3796   -1.6305 H   0  0
    0.0510   -0.6039    0.0172 H   0  0
    0.4066    2.1816   -0.1453 H   0  0
   -0.3488    2.1630   -1.7743 H   0  0
   -2.6537   -4.9319    0.6021 H   0  0
   -4.1523   -4.9442   -0.4156 H   0  0
   -4.2770   -4.5061    1.2849 H   0  0
  1  2  1  0  0  0
  2  3  2  0  0  0
  3  4  1  0  0  0
  4  5  2  0  0  0
  5  6  1  0  0  0
  1  6  2  0  0  0
  7  8  1  0  0  0
  7  9  1  0  0  0
  8  1  1  0  0  0
  6  9  1  0  0  0
  7 10  1  0  0  0
 10 11  1  0  0  0
  4 12  1  0  0  0
  2 13  1  0  0  0
  3 14  1  0  0  0
  5 15  1  0  0  0
  7 16  1  0  0  0
  9 17  1  0  0  0
  9 18  1  0  0  0
 10 19  1  0  0  0
 10 20  1  0  0  0
 12 21  1  0  0  0
 12 22  1  0  0  0
 12 23  1  0  0  0
M  END
> <Clean Energy>
1.10447

$$$$
MFC2016_1e
  DSViewer          3D                             0

 22 23  0  0  0  0  0  0  0  0999 V2000
   -2.0922    2.7623   -0.9270 C   0  0
   -3.4602    2.3156   -0.7934 C   0  0
   -3.6802    1.1143   -0.2477 C   0  0
   -2.5291    0.2709    0.2034 C   0  0
   -1.2764    0.7148    0.0628 C   0  0
   -1.0859    2.0156   -0.5254 C   0  0
   -0.3706    4.1309   -0.8242 C   0  0  1  0  0  0
   -1.6446    3.9706   -1.4166 O   0  0
    0.1634    2.6908   -0.8666 C   0  0
    0.5722    5.1641   -1.4521 C   0  0
   -0.3094    7.0660   -1.3483 I   0  0
   -2.7763   -1.0401    0.7927 C   0  0
   -1.8276   -1.7398    1.1641 O   0  0
   -4.2662    2.9247   -1.1148 H   0  0
   -4.6724    0.7581   -0.1340 H   0  0
   -0.4491    0.1275    0.3700 H   0  0
   -0.5587    4.3884    0.2274 H   0  0
    0.3674    2.4363   -1.9157 H   0  0
    1.0502    2.4740   -0.2554 H   0  0
    1.5252    5.1693   -0.9043 H   0  0
    0.7542    4.8996   -2.5035 H   0  0
   -3.7710   -1.3921    0.9020 H   0  0
  1  2  1  0  0  0
  2  3  2  0  0  0
  3  4  1  0  0  0
  4  5  2  0  0  0
  5  6  1  0  0  0
  1  6  2  0  0  0
  7  8  1  0  0  0
  7  9  1  0  0  0
  8  1  1  0  0  0
  6  9  1  0  0  0
  7 10  1  0  0  0
 10 11  1  0  0  0
  4 12  1  0  0  0
 12 13  2  0  0  0
  2 14  1  0  0  0
  3 15  1  0  0  0
  5 16  1  0  0  0
  7 17  1  0  0  0
  9 18  1  0  0  0
  9 19  1  0  0  0
 10 20  1  0  0  0
 10 21  1  0  0  0
 12 22  1  0  0  0
M  END
> <Clean Energy>
0.46583

$$$$
MFC2016_2b
  DSViewer          3D                             0

 26 26  0  0  0  0  0  0  0  0999 V2000
   -2.9576    0.6696   -1.0283 C   0  0
   -3.9604   -0.3432   -0.4521 C   0  0
   -3.6287   -1.6322   -0.4211 C   0  0
   -2.3489   -2.0916   -0.9172 C   0  0
   -1.4733   -1.2318   -1.4169 C   0  0
   -1.7765    0.1934   -1.4791 C   0  0
   -3.2886    2.0851   -1.0770 O   0  0
   -2.3050    2.9857   -1.6293 C   0  0
   -2.7957    4.4071   -1.6096 C   0  0
   -4.0014    4.7020   -1.1276 C   0  0
   -2.0197   -3.5113   -0.8673 C   0  0
   -2.8326   -4.3178   -0.4022 O   0  0
   -5.2692   -0.0403    0.0781 O   0  0
   -5.6986    1.3204    0.0800 C   0  0
   -4.3157   -2.3359   -0.0250 H   0  0
   -0.5404   -1.5853   -1.7761 H   0  0
   -1.0401    0.8274   -1.8872 H   0  0
   -1.3671    2.9306   -1.0577 H   0  0
   -2.0704    2.7105   -2.6680 H   0  0
   -2.1752    5.1822   -1.9833 H   0  0
   -4.6278    3.9369   -0.7528 H   0  0
   -4.3350    5.7089   -1.1197 H   0  0
   -1.0825   -3.8506   -1.2302 H   0  0
   -6.7072    1.3848    0.5117 H   0  0
   -5.7172    1.7020   -0.9517 H   0  0
   -5.0038    1.9248    0.6820 H   0  0
  1  2  1  0  0  0
  2  3  2  0  0  0
  3  4  1  0  0  0
  4  5  2  0  0  0
  5  6  1  0  0  0
  1  6  2  0  0  0
  1  7  1  0  0  0
  7  8  1  0  0  0
  8  9  1  0  0  0
  9 10  2  0  0  0
  4 11  1  0  0  0
 11 12  2  0  0  0
  2 13  1  0  0  0
 13 14  1  0  0  0
  3 15  1  0  0  0
  5 16  1  0  0  0
  6 17  1  0  0  0
  8 18  1  0  0  0
  8 19  1  0  0  0
  9 20  1  0  0  0
 10 21  1  0  0  0
 10 22  1  0  0  0
 11 23  1  0  0  0
 14 24  1  0  0  0
 14 25  1  0  0  0
 14 26  1  0  0  0
M  END
> <Clean Energy>
-0.120588

$$$$
MFC2016_2c
  DSViewer          3D                             0

 24 24  0  0  0  0  0  0  0  0999 V2000
   -2.9788    0.7930   -1.2893 C   0  0
   -3.9708   -0.0443   -0.6129 C   0  0
   -3.7612   -1.3450   -0.4282 C   0  0
   -2.4984   -1.9698   -0.9142 C   0  0
   -1.6010   -1.2036   -1.5281 C   0  0
   -1.8387    0.2278   -1.7282 C   0  0
   -3.3053    2.1856   -1.4362 O   0  0
   -2.3337    3.0129   -2.1017 C   0  0
   -2.8072    4.4371   -2.1762 C   0  0
   -3.9654    4.7933   -1.6229 C   0  0
   -2.1850   -3.3562   -0.7613 O   0  0
   -3.1828   -4.1434   -0.0929 C   0  0
   -4.8715    0.3935   -0.2646 H   0  0
   -4.5048   -1.9135    0.0656 H   0  0
   -0.6987   -1.6366   -1.8783 H   0  0
   -1.0931    0.7905   -2.2217 H   0  0
   -1.3752    2.9897   -1.5628 H   0  0
   -2.1445    2.6487   -3.1222 H   0  0
   -2.2140    5.1643   -2.6711 H   0  0
   -4.5638    4.0736   -1.1247 H   0  0
   -4.2900    5.8017   -1.6806 H   0  0
   -2.8410   -5.1863   -0.0302 H   0  0
   -4.1257   -4.1027   -0.6584 H   0  0
   -3.3441   -3.7514    0.9223 H   0  0
  1  2  1  0  0  0
  2  3  2  0  0  0
  3  4  1  0  0  0
  4  5  2  0  0  0
  5  6  1  0  0  0
  1  6  2  0  0  0
  1  7  1  0  0  0
  7  8  1  0  0  0
  8  9  1  0  0  0
  9 10  2  0  0  0
  4 11  1  0  0  0
 11 12  1  0  0  0
  2 13  1  0  0  0
  3 14  1  0  0  0
  5 15  1  0  0  0
  6 16  1  0  0  0
  8 17  1  0  0  0
  8 18  1  0  0  0
  9 19  1  0  0  0
 10 20  1  0  0  0
 10 21  1  0  0  0
 12 22  1  0  0  0
 12 23  1  0  0  0
 12 24  1  0  0  0
M  END
> <Clean Energy>
-0.0995222

$$$$
MFC2016_2d
  DSViewer          3D                             0

 23 23  0  0  0  0  0  0  0  0999 V2000
   -2.1204   -0.9583    1.3155 C   0  0
   -1.1937   -1.8037    2.0784 C   0  0
   -1.4133   -3.1095    2.2062 C   0  0
   -2.5796   -3.7156    1.5882 C   0  0
   -3.4300   -2.9672    0.8938 C   0  0
   -3.2001   -1.5282    0.7452 C   0  0
   -1.7997    0.4404    1.2332 O   0  0
   -2.7076    1.2695    0.4852 C   0  0
   -2.2483    2.7003    0.4868 C   0  0
   -1.1419    3.0535    1.1392 C   0  0
   -2.8233   -5.1834    1.7340 C   0  0
   -0.3401   -1.3682    2.5323 H   0  0
   -0.7365   -3.7093    2.7597 H   0  0
   -4.2799   -3.4150    0.4448 H   0  0
   -3.8983   -0.9661    0.1858 H   0  0
   -2.7811    0.9236   -0.5563 H   0  0
   -3.7180    1.2239    0.9173 H   0  0
   -2.8094    3.4343   -0.0346 H   0  0
   -0.5751    2.3268    1.6636 H   0  0
   -0.8267    4.0665    1.1342 H   0  0
   -3.8791   -5.4197    1.5382 H   0  0
   -2.5001   -5.5181    2.7300 H   0  0
   -2.2002   -5.7062    0.9949 H   0  0
  1  2  1  0  0  0
  2  3  2  0  0  0
  3  4  1  0  0  0
  4  5  2  0  0  0
  5  6  1  0  0  0
  1  6  2  0  0  0
  1  7  1  0  0  0
  7  8  1  0  0  0
  8  9  1  0  0  0
  9 10  2  0  0  0
  4 11  1  0  0  0
  2 12  1  0  0  0
  3 13  1  0  0  0
  5 14  1  0  0  0
  6 15  1  0  0  0
  8 16  1  0  0  0
  8 17  1  0  0  0
  9 18  1  0  0  0
 10 19  1  0  0  0
 10 20  1  0  0  0
 11 21  1  0  0  0
 11 22  1  0  0  0
 11 23  1  0  0  0
M  END
> <Clean Energy>
-0.374839

$$$$
MFC2016_2e
  DSViewer          3D                             0

 22 22  0  0  0  0  0  0  0  0999 V2000
   -4.5628    3.8551    4.0138 C   0  0
   -3.8471    3.4861    5.2777 C   0  0
   -4.2229    2.4053    5.9578 C   0  0
   -5.3258    1.5803    5.4790 C   0  0
   -5.9650    1.9022    4.3579 C   0  0
   -5.5670    3.0859    3.5967 C   0  0
   -4.2336    4.9927    3.2177 O   0  0
   -3.1452    5.7906    3.7054 C   0  0
   -2.8910    6.9590    2.7952 C   0  0
   -3.6611    7.1633    1.7277 C   0  0
   -5.7276    0.3983    6.2342 C   0  0
   -6.6618   -0.3043    5.8327 O   0  0
   -3.0435    4.0666    5.6483 H   0  0
   -3.7181    2.1423    6.8524 H   0  0
   -6.7663    1.2987    4.0145 H   0  0
   -6.0826    3.3346    2.7042 H   0  0
   -3.3688    6.1728    4.7121 H   0  0
   -2.2252    5.1925    3.7785 H   0  0
   -2.0938    7.6267    3.0054 H   0  0
   -4.4611    6.5020    1.5108 H   0  0
   -3.4733    7.9917    1.0921 H   0  0
   -5.2170    0.1429    7.1282 H   0  0
  1  2  1  0  0  0
  2  3  2  0  0  0
  3  4  1  0  0  0
  4  5  2  0  0  0
  5  6  1  0  0  0
  1  6  2  0  0  0
  1  7  1  0  0  0
  7  8  1  0  0  0
  8  9  1  0  0  0
  9 10  2  0  0  0
  4 11  1  0  0  0
 11 12  2  0  0  0
  2 13  1  0  0  0
  3 14  1  0  0  0
  5 15  1  0  0  0
  6 16  1  0  0  0
  8 17  1  0  0  0
  8 18  1  0  0  0
  9 19  1  0  0  0
 10 20  1  0  0  0
 10 21  1  0  0  0
 11 22  1  0  0  0
M  END
> <Clean Energy>
0

$$$$
MFC2016_3b
  DSViewer          3D                             0

 26 26  0  0  0  0  0  0  0  0999 V2000
    2.2300   -0.4854    2.2928 C   0  0
    0.9799   -1.1386    2.7182 C   0  0
    0.9910   -2.4644    2.9577 C   0  0
    2.2285   -3.2267    2.7931 C   0  0
    3.3469   -2.6231    2.4095 C   0  0
    3.3493   -1.1925    2.1507 C   0  0
    2.2463    0.8844    2.0355 O   0  0
    4.6183   -0.5145    1.7135 C   0  0
    5.2023    0.2479    2.8803 C   0  0
    5.4705   -0.3640    4.0339 C   0  0
    2.2348   -4.6608    3.0520 C   0  0
    1.1967   -5.2284    3.4092 O   0  0
   -0.1845   -0.3007    2.8504 O   0  0
   -1.4030   -0.9446    3.2667 C   0  0
    0.1239   -2.9835    3.2648 H   0  0
    4.2391   -3.1836    2.2933 H   0  0
    1.3486    1.2648    2.1843 H   0  0
    5.3344   -1.2916    1.4113 H   0  0
    4.4150    0.2071    0.9101 H   0  0
    5.4266    1.2784    2.7710 H   0  0
    5.2710   -1.3991    4.1492 H   0  0
    5.8877    0.1864    4.8386 H   0  0
    3.1307   -5.2162    2.9335 H   0  0
   -2.2069   -0.1972    3.3272 H   0  0
   -1.2583   -1.4052    4.2554 H   0  0
   -1.6798   -1.7193    2.5361 H   0  0
  1  2  1  0  0  0
  2  3  2  0  0  0
  3  4  1  0  0  0
  4  5  2  0  0  0
  5  6  1  0  0  0
  1  6  2  0  0  0
  1  7  1  0  0  0
  6  8  1  0  0  0
  8  9  1  0  0  0
  9 10  2  0  0  0
  4 11  1  0  0  0
 11 12  2  0  0  0
  2 13  1  0  0  0
 13 14  1  0  0  0
  3 15  1  0  0  0
  5 16  1  0  0  0
  7 17  1  0  0  0
  8 18  1  0  0  0
  8 19  1  0  0  0
  9 20  1  0  0  0
 10 21  1  0  0  0
 10 22  1  0  0  0
 11 23  1  0  0  0
 14 24  1  0  0  0
 14 25  1  0  0  0
 14 26  1  0  0  0
M  END
> <Clean Energy>
449314

$$$$
MFC2016_3c
  DSViewer          3D                             0

 24 24  0  0  0  0  0  0  0  0999 V2000
    2.3693   -0.8797    1.1698 C   0  0
    1.1906   -1.6981    0.9090 C   0  0
    1.2591   -3.0244    0.9998 C   0  0
    2.5553   -3.6779    1.3705 C   0  0
    3.6166   -2.9088    1.6026 C   0  0
    3.5219   -1.4578    1.4999 C   0  0
    2.2825    0.5041    1.0741 O   0  0
    4.7333   -0.6288    1.7769 C   0  0
    4.5886   -0.0711    3.1587 C   0  0
    5.5545   -0.2610    4.0526 C   0  0
    2.7292   -5.0902    1.4939 O   0  0
    1.5575   -5.8781    1.2379 C   0  0
    0.2742   -1.2336    0.6470 H   0  0
    0.3882   -3.5938    0.8062 H   0  0
    4.5411   -3.3555    1.8666 H   0  0
    1.3606    0.7579    0.8226 H   0  0
    5.6572   -1.2202    1.7078 H   0  0
    4.7206    0.2263    1.0864 H   0  0
    3.7062    0.4506    3.4319 H   0  0
    6.4264   -0.8019    3.7829 H   0  0
    5.4508    0.1240    5.0355 H   0  0
    1.8024   -6.9429    1.3596 H   0  0
    1.2091   -5.6996    0.2100 H   0  0
    0.7650   -5.6031    1.9496 H   0  0
  1  2  1  0  0  0
  2  3  2  0  0  0
  3  4  1  0  0  0
  4  5  2  0  0  0
  5  6  1  0  0  0
  1  6  2  0  0  0
  1  7  1  0  0  0
  6  8  1  0  0  0
  8  9  1  0  0  0
  9 10  2  0  0  0
  4 11  1  0  0  0
 11 12  1  0  0  0
  2 13  1  0  0  0
  3 14  1  0  0  0
  5 15  1  0  0  0
  7 16  1  0  0  0
  8 17  1  0  0  0
  8 18  1  0  0  0
  9 19  1  0  0  0
 10 20  1  0  0  0
 10 21  1  0  0  0
 12 22  1  0  0  0
 12 23  1  0  0  0
 12 24  1  0  0  0
M  END
> <Clean Energy>
4.81835e+12

$$$$
MFC2016_3d
  DSViewer          3D                             0

 23 23  0  0  0  0  0  0  0  0999 V2000
    1.4863   -0.8362    1.1460 C   0  0
    0.2312   -1.5586    1.3486 C   0  0
    0.2442   -2.7797    1.8781 C   0  0
    1.5127   -3.3975    2.2567 C   0  0
    2.6551   -2.7409    2.0738 C   0  0
    2.6419   -1.4008    1.4932 C   0  0
    1.4680    0.4379    0.5916 O   0  0
    3.9305   -0.6674    1.2899 C   0  0
    4.0379    0.3522    2.3836 C   0  0
    4.5568    0.0125    3.5604 C   0  0
    1.5268   -4.7693    2.8499 C   0  0
   -0.6888   -1.1093    1.0734 H   0  0
   -0.6652   -3.3046    2.0254 H   0  0
    3.5753   -3.1898    2.3492 H   0  0
    0.5341    0.6972    0.3973 H   0  0
    4.7647   -1.3789    1.3676 H   0  0
    3.8889   -0.1301    0.3322 H   0  0
    3.7013    1.3443    2.2177 H   0  0
    4.8927   -0.9808    3.7237 H   0  0
    4.6333    0.7336    4.3345 H   0  0
    2.5568   -5.1015    3.0433 H   0  0
    1.0100   -5.4572    2.1657 H   0  0
    0.9402   -4.7564    3.7792 H   0  0
  1  2  1  0  0  0
  2  3  2  0  0  0
  3  4  1  0  0  0
  4  5  2  0  0  0
  5  6  1  0  0  0
  1  6  2  0  0  0
  1  7  1  0  0  0
  6  8  1  0  0  0
  8  9  1  0  0  0
  9 10  2  0  0  0
  4 11  1  0  0  0
  2 12  1  0  0  0
  3 13  1  0  0  0
  5 14  1  0  0  0
  7 15  1  0  0  0
  8 16  1  0  0  0
  8 17  1  0  0  0
  9 18  1  0  0  0
 10 19  1  0  0  0
 10 20  1  0  0  0
 11 21  1  0  0  0
 11 22  1  0  0  0
 11 23  1  0  0  0
M  END
> <Clean Energy>
1.49907e+06

$$$$
MFC2016_3e
  DSViewer          3D                             0

 22 22  0  0  0  0  0  0  0  0999 V2000
    1.9815   -0.4977    1.3981 C   0  0
    0.6901   -1.1749    1.5081 C   0  0
    0.6334   -2.4349    1.9341 C   0  0
    1.8630   -3.1408    2.2916 C   0  0
    3.0378   -2.5251    2.1915 C   0  0
    3.1004   -1.1421    1.7247 C   0  0
    2.0363    0.8174    0.9531 O   0  0
    4.4249   -0.4535    1.6150 C   0  0
    4.5886    0.3883    2.8448 C   0  0
    5.0664   -0.1531    3.9624 C   0  0
    1.8029   -4.5203    2.7582 C   0  0
    0.7120   -5.0936    2.8516 O   0  0
   -0.2008   -0.6620    1.2486 H   0  0
   -0.3027   -2.9265    2.0142 H   0  0
    3.9291   -3.0370    2.4514 H   0  0
    1.1209    1.1356    0.7579 H   0  0
    5.2198   -1.2122    1.5898 H   0  0
    4.4151    0.2150    0.7429 H   0  0
    4.3269    1.4158    2.8222 H   0  0
    5.3291   -1.1813    3.9818 H   0  0
    5.1834    0.4418    4.8325 H   0  0
    2.6958   -5.0309    3.0171 H   0  0
  1  2  1  0  0  0
  2  3  2  0  0  0
  3  4  1  0  0  0
  4  5  2  0  0  0
  5  6  1  0  0  0
  1  6  2  0  0  0
  1  7  1  0  0  0
  6  8  1  0  0  0
  8  9  1  0  0  0
  9 10  2  0  0  0
  4 11  1  0  0  0
 11 12  2  0  0  0
  2 13  1  0  0  0
  3 14  1  0  0  0
  5 15  1  0  0  0
  7 16  1  0  0  0
  8 17  1  0  0  0
  8 18  1  0  0  0
  9 19  1  0  0  0
 10 20  1  0  0  0
 10 21  1  0  0  0
 11 22  1  0  0  0
M  END
> <Clean Energy>
9.91807e+08

$$$$
LFSN2017_N,N-diallyl-4-chloroanilline
  SciTegic12132405553D

 28 28  0  0  0  0            999 V2000
    7.6096   -3.6628   -1.3627 C   0  0
    8.8324   -4.4578   -1.7025 C   0  0
    8.7625   -5.7764   -1.8638 C   0  0
    7.4971   -6.4686   -1.7130 C   0  0
    6.3990   -5.7860   -1.4120 C   0  0
    6.4500   -4.3348   -1.2285 C   0  0
    7.6830   -2.1889   -1.1720 N   0  0
    8.9760   -1.4731   -1.2610 C   0  0
    8.8907   -0.1216   -1.9371 C   0  0
    9.9496    0.6829   -1.9208 C   0  0
    7.4187   -8.1812   -1.9236 Cl  0  0
    6.5033   -1.4216   -0.7576 C   0  0
    5.6084   -1.1486   -1.9395 C   0  0
    4.5088   -0.4181   -1.7823 C   0  0
    9.7679   -3.9857   -1.8181 H   0  0
    9.6377   -6.3252   -2.1036 H   0  0
    5.4763   -6.2972   -1.3021 H   0  0
    5.5546   -3.8331   -0.9877 H   0  0
    9.3618   -1.3016   -0.2476 H   0  0
    9.7303   -2.0652   -1.7775 H   0  0
    8.0024    0.1902   -2.4221 H   0  0
   10.8416    0.3734   -1.4367 H   0  0
    9.9019    1.6332   -2.3901 H   0  0
    5.9112   -1.9863   -0.0253 H   0  0
    6.7846   -0.4624   -0.3025 H   0  0
    5.8581   -1.5367   -2.8948 H   0  0
    4.2637   -0.0301   -0.8259 H   0  0
    3.8776   -0.2235   -2.6126 H   0  0
  1  2  1  0
  2  3  2  0
  3  4  1  0
  4  5  2  0
  5  6  1  0
  1  6  2  0
  1  7  1  0
  7  8  1  0
  8  9  1  0
  9 10  2  0
  4 11  1  0
  7 12  1  0
 12 13  1  0
 13 14  2  0
  2 15  1  0
  3 16  1  0
  5 17  1  0
  6 18  1  0
  8 19  1  0
  8 20  1  0
  9 21  1  0
 10 22  1  0
 10 23  1  0
 12 24  1  0
 12 25  1  0
 13 26  1  0
 14 27  1  0
 14 28  1  0
M  END
> <Name>
LFSN2017_N,N-diallyl-4-chloroanilline

> <Clean Energy>
34.8247985839844

$$$$
LFSN2017_N-allyl-4-chloroanilline
  DSViewer          3D                             0

 21 21  0  0  0  0  0  0  0  0999 V2000
    2.9971   -7.3726   -5.0659 C   0  0
    4.3128   -8.0500   -5.1834 C   0  0
    4.3980   -9.3663   -5.0022 C   0  0
    3.2010  -10.1443   -4.6883 C   0  0
    2.0204   -9.5393   -4.5823 C   0  0
    1.9151   -8.0935   -4.7795 C   0  0
    2.8465   -5.9791   -5.2477 N   0  0
    3.9620   -5.1305   -5.5587 C   0  0
    3.5315   -3.7053   -5.6994 C   0  0
    4.4303   -2.7683   -5.9880 C   0  0
    3.3190  -11.8516   -4.4544 Cl  0  0
    5.1898   -7.5016   -5.4102 H   0  0
    5.3371   -9.8517   -5.0859 H   0  0
    1.1539  -10.1068   -4.3544 H   0  0
    0.9720   -7.6163   -4.6939 H   0  0
    1.9427   -5.5754   -5.1578 H   0  0
    4.7307   -5.2079   -4.7764 H   0  0
    4.4474   -5.4624   -6.4877 H   0  0
    2.5118   -3.4430   -5.5693 H   0  0
    5.4493   -3.0344   -6.1175 H   0  0
    4.1285   -1.7562   -6.0886 H   0  0
  1  2  1  0  0  0
  2  3  2  0  0  0
  3  4  1  0  0  0
  4  5  2  0  0  0
  5  6  1  0  0  0
  1  6  2  0  0  0
  1  7  1  0  0  0
  7  8  1  0  0  0
  8  9  1  0  0  0
  9 10  2  0  0  0
  4 11  1  0  0  0
  2 12  1  0  0  0
  3 13  1  0  0  0
  5 14  1  0  0  0
  6 15  1  0  0  0
  7 16  1  0  0  0
  8 17  1  0  0  0
  8 18  1  0  0  0
  9 19  1  0  0  0
 10 20  1  0  0  0
 10 21  1  0  0  0
M  END
> <Clean Energy>
0

$$$$
NDS2016_1
  SciTegic12132405553D

 16 16  0  0  0  0            999 V2000
   -2.4857    1.2644    2.1877 N   0  0
   -3.8765    1.3398    2.3187 C   0  0
   -4.6631    0.8015    1.3880 C   0  0
   -4.0976    0.1606    0.2794 N   0  0
   -2.8338    0.0914    0.1591 C   0  0
   -1.9711    0.6827    1.1814 C   0  0
   -0.5219    0.6045    1.0456 C   0  0
    0.2057    1.1049    1.9108 O   0  0
    0.0363   -0.0338   -0.0586 O   0  0
    1.4614    0.0151    0.0253 C   0  0
   -4.3045    1.8254    3.1588 H   0  0
   -5.7176    0.8585    1.4870 H   0  0
   -2.4055   -0.3942   -0.6810 H   0  0
    1.8972   -0.4901   -0.8485 H   0  0
    1.7916   -0.4910    0.9441 H   0  0
    1.7912    1.0639    0.0451 H   0  0
  1  2  1  0
  2  3  2  0
  3  4  1  0
  4  5  2  0
  5  6  1  0
  1  6  2  0
  6  7  1  0
  7  9  1  0
  9 10  1  0
  7  8  2  0
  2 11  1  0
  3 12  1  0
  5 13  1  0
 10 14  1  0
 10 15  1  0
 10 16  1  0
M  END
> <Name>
NDS2016_1

> <Clean Energy>
-1.99498999118805

$$$$
NDS2016_2
  SciTegic12132405553D

 19 19  0  0  0  0            999 V2000
   -3.7257    2.8660   -0.0012 N   0  0
   -4.3222    4.1314   -0.0013 C   0  0
   -3.5622    5.2257   -0.0004 C   0  0
   -2.1673    5.1087    0.0007 N   0  0
   -1.6240    3.9592    0.0009 C   0  0
   -2.4591    2.7588   -0.0001 C   0  0
   -1.8379    1.4410    0.0000 C   0  0
   -2.5442    0.4263   -0.0008 O   0  0
   -0.4518    1.3316    0.0012 O   0  0
   -0.0773   -0.0451    0.0011 C   0  0
    1.4552   -0.1539    0.0024 C   0  0
   -5.3791    4.2197   -0.0022 H   0  0
   -4.0141    6.1853   -0.0006 H   0  0
   -0.5670    3.8705    0.0017 H   0  0
   -0.4809   -0.5352    0.8987 H   0  0
   -0.4795   -0.5347   -0.8974 H   0  0
    1.7472   -1.2140    0.0023 H   0  0
    1.8559    0.3374    0.9007 H   0  0
    1.8573    0.3379   -0.8951 H   0  0
  1  2  1  0
  2  3  2  0
  3  4  1  0
  4  5  2  0
  5  6  1  0
  1  6  2  0
  6  7  1  0
  7  9  1  0
  9 10  1  0
  7  8  2  0
 10 11  1  0
  2 12  1  0
  3 13  1  0
  5 14  1  0
 10 15  1  0
 10 16  1  0
 11 17  1  0
 11 18  1  0
 11 19  1  0
M  END
> <Name>
NDS2016_2

> <Clean Energy>
-2.53741

$$$$
NDS2016_3
  SciTegic12132405553D

 19 19  0  0  0  0            999 V2000
    1.8198   -1.2684   -0.0010 N   0  0
    3.0295   -0.5658   -0.0014 C   0  0
    3.0257    0.7665   -0.0009 C   0  0
    1.8112    1.4626    0.0001 N   0  0
    0.7111    0.8251    0.0004 C   0  0
    0.7165   -0.6372   -0.0002 C   0  0
   -0.5433   -1.3689    0.0002 C   0  0
   -0.5384   -2.6052   -0.0002 O   0  0
   -1.7462   -0.6717    0.0012 O   0  0
   -2.8361   -1.5922    0.0014 C   0  0
   -4.1594   -0.8121    0.0024 C   0  0
   -5.5113   -1.9489    0.0027 Cl  0  0
    3.9495   -1.0935   -0.0021 H   0  0
    3.9427    1.2995   -0.0012 H   0  0
   -0.2092    1.3526    0.0011 H   0  0
   -2.7833   -2.2239   -0.8969 H   0  0
   -2.7823   -2.2246    0.8991 H   0  0
   -4.2107   -0.1799    0.9006 H   0  0
   -4.2116   -0.1793   -0.8953 H   0  0
  1  2  1  0
  2  3  2  0
  3  4  1  0
  4  5  2  0
  5  6  1  0
  1  6  2  0
  6  7  1  0
  7  9  1  0
  9 10  1  0
  7  8  2  0
 10 11  1  0
 11 12  1  0
  2 13  1  0
  3 14  1  0
  5 15  1  0
 10 16  1  0
 10 17  1  0
 11 18  1  0
 11 19  1  0
M  END
> <Name>
NDS2016_3

> <Clean Energy>
-2.59196

$$$$
NDS2016_4
  SciTegic12132405553D

 31 31  0  0  0  0            999 V2000
    1.8432   -1.2922   -0.0003 N   0  0
    3.0666   -0.6136    0.0000 C   0  0
    3.0890    0.7185    0.0007 C   0  0
    1.8885    1.4384    0.0011 N   0  0
    0.7760    0.8229    0.0008 C   0  0
    0.7526   -0.6393    0.0000 C   0  0
   -0.5215   -1.3459   -0.0003 C   0  0
   -0.5411   -2.5821   -0.0009 O   0  0
   -1.7101   -0.6252    0.0001 O   0  0
   -2.8167   -1.5243   -0.0003 C   0  0
   -4.1212   -0.7229    0.0001 C   0  0
   -5.3027   -1.6937   -0.0003 C   0  0
   -6.6055   -0.8942    0.0002 C   0  0
   -7.7876   -1.8653   -0.0003 C   0  0
   -9.0948   -1.0627    0.0002 C   0  0
    3.9759   -1.1594   -0.0003 H   0  0
    4.0164    1.2333    0.0009 H   0  0
   -0.1336    1.3684    0.0011 H   0  0
   -2.7770   -2.1567   -0.8983 H   0  0
   -2.7769   -2.1576    0.8971 H   0  0
   -4.1656   -0.0909    0.8981 H   0  0
   -4.1657   -0.0900   -0.8972 H   0  0
   -5.2594   -2.3258   -0.8981 H   0  0
   -5.2593   -2.3266    0.8970 H   0  0
   -6.6486   -0.2620    0.8980 H   0  0
   -6.6487   -0.2612   -0.8971 H   0  0
   -7.7422   -2.4972   -0.8985 H   0  0
   -7.7422   -2.4981    0.8974 H   0  0
   -9.9499   -1.7537   -0.0001 H   0  0
   -9.1335   -0.4288   -0.8973 H   0  0
   -9.1335   -0.4297    0.8982 H   0  0
  1  2  1  0
  2  3  2  0
  3  4  1  0
  4  5  2  0
  5  6  1  0
  1  6  2  0
  6  7  1  0
  7  9  1  0
  9 10  1  0
  7  8  2  0
 10 11  1  0
 11 12  1  0
 12 13  1  0
 13 14  1  0
 14 15  1  0
  2 16  1  0
  3 17  1  0
  5 18  1  0
 10 19  1  0
 10 20  1  0
 11 21  1  0
 11 22  1  0
 12 23  1  0
 12 24  1  0
 13 25  1  0
 13 26  1  0
 14 27  1  0
 14 28  1  0
 15 29  1  0
 15 30  1  0
 15 31  1  0
M  END
> <Name>
NDS2016_4

> <Clean Energy>
-6.09821

$$$$
NDS2016_5
  SciTegic12132405553D

 30 31  0  0  0  0            999 V2000
    1.8673   -1.0009    0.7757 N   0  0
    3.0928   -0.4170    0.4377 C   0  0
    3.1430    0.5330   -0.4951 C   0  0
    1.9694    0.9464   -1.1364 N   0  0
    0.8550    0.4164   -0.8302 C   0  0
    0.8011   -0.6262    0.1938 C   0  0
   -0.4752   -1.2341    0.5456 C   0  0
   -0.5208   -2.1155    1.4113 O   0  0
   -1.6368   -0.8188   -0.0955 O   0  0
   -2.7532   -1.5491    0.4092 C   0  0
   -4.0273   -1.0823   -0.3052 C   0  0
   -5.1467   -1.8117    0.1981 O   0  0
   -6.5043   -1.5783   -0.3014 C   0  0
   -7.3750   -2.2804    0.2239 O   0  0
   -7.0289   -0.6001   -1.3758 C   0  0
   -6.9452    1.0996   -3.0466 N   0  0
   -6.3129    0.2764   -2.1047 C   0  0
   -8.4187   -0.6536   -1.5967 N   0  0
   -8.9860    0.0949   -2.4516 C   0  0
   -8.1984    1.0329   -3.2275 C   0  0
    3.9818   -0.7304    0.9238 H   0  0
    4.0720    0.9759   -0.7516 H   0  0
   -0.0343    0.7297   -1.3162 H   0  0
   -2.6029   -2.6227    0.2270 H   0  0
   -2.8518   -1.3698    1.4893 H   0  0
   -4.1758   -0.0086   -0.1225 H   0  0
   -3.9269   -1.2617   -1.3850 H   0  0
   -5.2850    0.3632   -1.9882 H   0  0
  -10.0347    0.0339   -2.5978 H   0  0
   -8.6681    1.6599   -3.9425 H   0  0
  1  2  1  0
  2  3  2  0
  3  4  1  0
  4  5  2  0
  5  6  1  0
  1  6  2  0
  6  7  1  0
  7  9  1  0
  9 10  1  0
  7  8  2  0
 10 11  1  0
 11 12  1  0
 12 13  1  0
 13 14  2  0
 13 15  1  0
 16 17  1  0
 18 19  2  0
 19 20  1  0
 16 20  2  0
 17 15  2  0
 15 18  1  0
  2 21  1  0
  3 22  1  0
  5 23  1  0
 10 24  1  0
 10 25  1  0
 11 26  1  0
 11 27  1  0
 17 28  1  0
 19 29  1  0
 20 30  1  0
M  END
> <Name>
NDS2016_5

> <Clean Energy>
8.01672

$$$$
NDS2016_6
  SciTegic12132405553D

 33 34  0  0  0  0            999 V2000
    5.0620  -10.0815    1.5520 N   0  0
    5.0598  -11.4702    1.3822 C   0  0
    4.0458  -12.0624    0.7528 C   0  0
    2.9833  -11.2949    0.2616 N   0  0
    2.9841  -10.0328    0.4153 C   0  0
    4.0975   -9.3838    1.1063 C   0  0
    4.0994   -7.9376    1.2828 C   0  0
    5.0405   -7.3885    1.8669 O   0  0
    3.0408   -7.1821    0.7923 O   0  0
    3.2598   -5.8028    1.0801 C   0  0
    2.0878   -4.9800    0.5353 C   0  0
    2.3277   -3.4992    0.8469 C   0  0
    1.2390   -2.7292    0.3416 O   0  0
    1.4472   -1.3830    0.6193 C   0  0
    2.4639   -1.0208    1.2223 O   0  0
    0.4618   -0.3946    0.1972 C   0  0
    0.6683    0.9605    0.4751 N   0  0
   -0.6344   -0.7826   -0.4526 C   0  0
   -1.5797    0.1663   -0.8574 N   0  0
   -1.3942    1.3989   -0.6060 C   0  0
   -0.1892    1.8245    0.1082 C   0  0
    5.8650  -12.0514    1.7545 H   0  0
    4.0438  -13.1152    0.6240 H   0  0
    2.1789   -9.4513    0.0430 H   0  0
    3.3323   -5.6605    2.1676 H   0  0
    4.1927   -5.4707    0.6030 H   0  0
    2.0143   -5.1198   -0.5524 H   0  0
    1.1539   -5.3096    1.0122 H   0  0
    2.4023   -3.3618    1.9349 H   0  0
    3.2627   -3.1721    0.3704 H   0  0
   -0.7908   -1.8102   -0.6632 H   0  0
   -2.1113    2.1176   -0.9132 H   0  0
   -0.0319    2.8519    0.3193 H   0  0
  1  2  1  0
  2  3  2  0
  3  4  1  0
  4  5  2  0
  5  6  1  0
  1  6  2  0
  6  7  1  0
  7  9  1  0
  9 10  1  0
  7  8  2  0
 10 11  1  0
 11 12  1  0
 12 13  1  0
 13 14  1  0
 14 15  2  0
 14 16  1  0
 18 19  1  0
 19 20  2  0
 20 21  1  0
 17 21  2  0
 17 16  1  0
 16 18  2  0
  2 22  1  0
  3 23  1  0
  5 24  1  0
 10 25  1  0
 10 26  1  0
 11 27  1  0
 11 28  1  0
 12 29  1  0
 12 30  1  0
 18 31  1  0
 20 32  1  0
 21 33  1  0
M  END
> <Name>
NDS2016_6

> <Clean Energy>
-5.8542

$$$$
MTV2022_1
  DSViewer          3D                             0

 42 42  0  0  0  0  0  0  0  0999 V2000
   -3.9198    1.3085    0.0002 C   0  0
   -5.2018    0.6032    0.0001 C   0  0
   -5.2289   -0.7277   -0.0000 C   0  0
   -3.9724   -1.4863   -0.0001 C   0  0
   -2.8045   -0.8434    0.0000 C   0  0
   -2.7776    0.6217    0.0002 C   0  0
   -6.3921    1.3237    0.0001 O   0  0
   -6.4487   -1.3972   -0.0002 O   0  0
   -1.5040    1.3449    0.0003 C   0  0
   -1.5071    2.5802    0.0004 O   0  0
   -0.3432    0.6909    0.0002 N   0  0
    0.8807    1.4510    0.0004 C   0  0
    2.1134    0.5232    0.0000 C   0  0
    3.3881    1.3978    0.0002 C   0  0
    4.6521    0.5136   -0.0001 C   0  0
    5.9025    1.4193    0.0001 C   0  0
    7.1788    0.5551   -0.0002 C   0  0
    8.4187    1.4718    0.0000 C   0  0
    9.6976    0.6130   -0.0003 C   0  0
   -3.8988    2.3983    0.0003 H   0  0
   -3.9942   -2.5761   -0.0002 H   0  0
   -1.8713   -1.4066    0.0000 H   0  0
   -6.4357    1.9284    0.8574 H   0  0
   -6.9941   -1.1322    0.8571 H   0  0
   -0.3203   -0.3789    0.0001 H   0  0
    0.9087    2.0797   -0.8896 H   0  0
    0.9088    2.0792    0.8907 H   0  0
    2.0996   -0.1060    0.8900 H   0  0
    2.0995   -0.1054   -0.8903 H   0  0
    3.3909    2.0271   -0.8897 H   0  0
    3.3910    2.0266    0.8905 H   0  0
    4.6574   -0.1158    0.8898 H   0  0
    4.6573   -0.1152   -0.8905 H   0  0
    5.8925    2.0486   -0.8898 H   0  0
    5.8926    2.0480    0.8904 H   0  0
    7.1919   -0.0742    0.8897 H   0  0
    7.1918   -0.0736   -0.8906 H   0  0
    8.4044    2.1011   -0.8899 H   0  0
    8.4045    2.1004    0.8904 H   0  0
   10.5724    1.2631   -0.0001 H   0  0
    9.7132   -0.0160   -0.8904 H   0  0
    9.7133   -0.0166    0.8893 H   0  0
  1  2  1  0  0  0
  2  3  2  0  0  0
  3  4  1  0  0  0
  4  5  2  0  0  0
  5  6  1  0  0  0
  1  6  2  0  0  0
  2  7  1  0  0  0
  3  8  1  0  0  0
  6  9  1  0  0  0
  9 10  2  0  0  0
  9 11  1  0  0  0
 11 12  1  0  0  0
 12 13  1  0  0  0
 13 14  1  0  0  0
 14 15  1  0  0  0
 15 16  1  0  0  0
 16 17  1  0  0  0
 17 18  1  0  0  0
 18 19  1  0  0  0
  1 20  1  0  0  0
  4 21  1  0  0  0
  5 22  1  0  0  0
  7 23  1  0  0  0
  8 24  1  0  0  0
 11 25  1  0  0  0
 12 26  1  0  0  0
 12 27  1  0  0  0
 13 28  1  0  0  0
 13 29  1  0  0  0
 14 30  1  0  0  0
 14 31  1  0  0  0
 15 32  1  0  0  0
 15 33  1  0  0  0
 16 34  1  0  0  0
 16 35  1  0  0  0
 17 36  1  0  0  0
 17 37  1  0  0  0
 18 38  1  0  0  0
 18 39  1  0  0  0
 19 40  1  0  0  0
 19 41  1  0  0  0
 19 42  1  0  0  0
M  END
> <Clean Energy>
7.3058e+07

$$$$
MTV2022_2
  SciTegic12132405553D

 45 45  0  0  0  0            999 V2000
   -3.7690    1.2673    0.0002 C   0  0
   -5.0667    0.5696   -0.0005 C   0  0
   -5.0648   -0.7872    0.0001 C   0  0
   -3.7794   -1.5064   -0.0001 C   0  0
   -2.6225   -0.8502    0.0002 C   0  0
   -2.6179    0.5999    0.0000 C   0  0
   -6.2354    1.4361   -0.0002 O   0  0
   -6.2210   -1.5733   -0.0004 O   0  0
   -1.3516    1.3394    0.0003 C   0  0
   -1.3686    2.5752    0.0003 O   0  0
   -0.1837    0.6965    0.0003 N   0  0
    1.0384    1.4622    0.0004 C   0  0
    2.2745    0.5351    0.0001 C   0  0
    3.5527    1.4071    0.0002 C   0  0
    4.8165    0.5194   -0.0001 C   0  0
    6.0707    1.4218    0.0001 C   0  0
    7.3469    0.5554   -0.0002 C   0  0
    8.5886    1.4711    0.0000 C   0  0
    9.8676    0.6118   -0.0003 C   0  0
   -7.5424    0.8414   -0.0004 C   0  0
   -3.7515    2.3572    0.0008 H   0  0
   -3.7762   -2.5964   -0.0006 H   0  0
   -1.6815   -1.4002    0.0006 H   0  0
   -6.7897   -1.3607    0.8563 H   0  0
   -0.1535   -0.3731    0.0003 H   0  0
    1.0647    2.0910   -0.8895 H   0  0
    1.0649    2.0905    0.8908 H   0  0
    2.2605   -0.0941    0.8900 H   0  0
    2.2604   -0.0936   -0.8903 H   0  0
    3.5569    2.0365   -0.8897 H   0  0
    3.5570    2.0359    0.8906 H   0  0
    4.8201   -0.1100    0.8898 H   0  0
    4.8200   -0.1094   -0.8905 H   0  0
    6.0621    2.0512   -0.8898 H   0  0
    6.0622    2.0505    0.8905 H   0  0
    7.3591   -0.0739    0.8897 H   0  0
    7.3591   -0.0733   -0.8906 H   0  0
    8.5747    2.1003   -0.8899 H   0  0
    8.5748    2.0997    0.8904 H   0  0
   10.7425    1.2618   -0.0001 H   0  0
    9.8831   -0.0171   -0.8904 H   0  0
    9.8832   -0.0178    0.8893 H   0  0
   -8.2991    1.6259   -0.0002 H   0  0
   -7.6609    0.2228    0.8892 H   0  0
   -7.6608    0.2235   -0.8906 H   0  0
  1  2  1  0
  2  3  2  0
  3  4  1  0
  4  5  2  0
  5  6  1  0
  1  6  2  0
  2  7  1  0
  3  8  1  0
  6  9  1  0
  9 10  2  0
  9 11  1  0
 11 12  1  0
 12 13  1  0
 13 14  1  0
 14 15  1  0
 15 16  1  0
 16 17  1  0
 17 18  1  0
 18 19  1  0
  7 20  1  0
  1 21  1  0
  4 22  1  0
  5 23  1  0
  8 24  1  0
 11 25  1  0
 12 26  1  0
 12 27  1  0
 13 28  1  0
 13 29  1  0
 14 30  1  0
 14 31  1  0
 15 32  1  0
 15 33  1  0
 16 34  1  0
 16 35  1  0
 17 36  1  0
 17 37  1  0
 18 38  1  0
 18 39  1  0
 19 40  1  0
 19 41  1  0
 19 42  1  0
 20 43  1  0
 20 44  1  0
 20 45  1  0
M  END
> <Name>
MTV2022_2

> <Clean Energy>
4.36683

$$$$
MTV2022_3
  SciTegic12132405553D

 38 38  0  0  0  0            999 V2000
   -4.2056    1.2562   -0.0003 N   0  0
   -5.4303    0.5797   -0.0003 C   0  0
   -5.4532   -0.7521    0.0000 C   0  0
   -4.2508   -1.4724    0.0004 N   0  0
   -3.1359   -0.8586    0.0004 C   0  0
   -3.1129    0.6054    0.0000 C   0  0
   -1.8406    1.3278    0.0001 C   0  0
   -1.8424    2.5639   -0.0002 O   0  0
   -0.6823    0.6717    0.0004 N   0  0
    0.5428    1.4256    0.0004 C   0  0
    1.7682    0.4906    0.0003 C   0  0
    3.0452    1.3583    0.0002 C   0  0
    4.3040    0.4692    0.0001 C   0  0
    5.5550    1.3719    0.0001 C   0  0
    6.8290    0.5062    0.0001 C   0  0
    8.0685    1.4225    0.0001 C   0  0
    9.3468    0.5635    0.0002 C   0  0
   -6.3643    1.1417   -0.0007 H   0  0
   -6.4061   -1.2813    0.0000 H   0  0
   -2.2019   -1.4205    0.0007 H   0  0
   -0.6628   -0.3981    0.0007 H   0  0
    0.5742    2.0540   -0.8897 H   0  0
    0.5743    2.0539    0.8905 H   0  0
    1.7510   -0.1382    0.8904 H   0  0
    1.7509   -0.1382   -0.8899 H   0  0
    3.0509    1.9874   -0.8899 H   0  0
    3.0510    1.9874    0.8904 H   0  0
    4.3072   -0.1599    0.8903 H   0  0
    4.3071   -0.1599   -0.8900 H   0  0
    5.5462    2.0009   -0.8900 H   0  0
    5.5462    2.0009    0.8902 H   0  0
    6.8415   -0.1228    0.8902 H   0  0
    6.8415   -0.1227   -0.8901 H   0  0
    8.0545    2.0514   -0.8900 H   0  0
    8.0544    2.0515    0.8902 H   0  0
   10.2219    1.2133    0.0002 H   0  0
    9.3623   -0.0658   -0.8897 H   0  0
    9.3622   -0.0658    0.8900 H   0  0
  1  2  1  0
  2  3  2  0
  3  4  1  0
  4  5  2  0
  5  6  1  0
  1  6  2  0
  6  7  1  0
  7  8  2  0
  7  9  1  0
  9 10  1  0
 10 11  1  0
 11 12  1  0
 12 13  1  0
 13 14  1  0
 14 15  1  0
 15 16  1  0
 16 17  1  0
  2 18  1  0
  3 19  1  0
  5 20  1  0
  9 21  1  0
 10 22  1  0
 10 23  1  0
 11 24  1  0
 11 25  1  0
 12 26  1  0
 12 27  1  0
 13 28  1  0
 13 29  1  0
 14 30  1  0
 14 31  1  0
 15 32  1  0
 15 33  1  0
 16 34  1  0
 16 35  1  0
 17 36  1  0
 17 37  1  0
 17 38  1  0
M  END
> <Name>
MTV2022_3

> <Clean Energy>
-1.71506

$$$$
MTV2022_4
  SciTegic12132405553D

 40 40  0  0  0  0            999 V2000
   -4.2381    1.3506   -0.0004 C   0  0
   -5.5631    0.7246   -0.0004 C   0  0
   -5.6744   -0.6021    0.0000 C   0  0
   -4.4719   -1.4352    0.0006 C   0  0
   -3.2672   -0.8672    0.0006 C   0  0
   -3.1363    0.6008    0.0001 C   0  0
   -1.8706    1.2548    0.0000 N   0  0
   -0.6772    0.6391    0.0004 C   0  0
    0.5671    1.4784    0.0003 C   0  0
    1.8132    0.5732    0.0005 C   0  0
    3.0741    1.4567    0.0002 C   0  0
    4.3357    0.5744    0.0003 C   0  0
    5.5814    1.4800   -0.0001 C   0  0
    6.8553    0.6165    0.0000 C   0  0
    8.0915    1.5354   -0.0005 C   0  0
    9.3711    0.6794   -0.0004 C   0  0
   -0.5705   -0.5924    0.0008 O   0  0
   -4.1531    2.4373   -0.0008 H   0  0
   -6.4587    1.3459   -0.0008 H   0  0
   -6.6603   -1.0670    0.0000 H   0  0
   -4.5619   -2.5215    0.0010 H   0  0
   -2.3735   -1.4913    0.0010 H   0  0
   -1.8710    2.3248   -0.0003 H   0  0
    0.5780    2.1072   -0.8900 H   0  0
    0.5780    2.1076    0.8903 H   0  0
    1.8079   -0.0556    0.8908 H   0  0
    1.8078   -0.0561   -0.8894 H   0  0
    3.0738    2.0856   -0.8901 H   0  0
    3.0739    2.0860    0.8902 H   0  0
    4.3416   -0.0544    0.8906 H   0  0
    4.3414   -0.0549   -0.8896 H   0  0
    5.5709    2.1087   -0.8904 H   0  0
    5.5712    2.1092    0.8899 H   0  0
    6.8691   -0.0122    0.8903 H   0  0
    6.8688   -0.0127   -0.8900 H   0  0
    8.0758    2.1640   -0.8908 H   0  0
    8.0760    2.1645    0.8895 H   0  0
   10.2448    1.3311   -0.0008 H   0  0
    9.3878    0.0498   -0.8901 H   0  0
    9.3881    0.0504    0.8896 H   0  0
  1  2  1  0
  2  3  2  0
  3  4  1  0
  4  5  2  0
  5  6  1  0
  1  6  2  0
  6  7  1  0
  7  8  1  0
  8  9  1  0
  9 10  1  0
 10 11  1  0
 11 12  1  0
 12 13  1  0
 13 14  1  0
 14 15  1  0
 15 16  1  0
  8 17  2  0
  1 18  1  0
  2 19  1  0
  3 20  1  0
  4 21  1  0
  5 22  1  0
  7 23  1  0
  9 24  1  0
  9 25  1  0
 10 26  1  0
 10 27  1  0
 11 28  1  0
 11 29  1  0
 12 30  1  0
 12 31  1  0
 13 32  1  0
 13 33  1  0
 14 34  1  0
 14 35  1  0
 15 36  1  0
 15 37  1  0
 16 38  1  0
 16 39  1  0
 16 40  1  0
M  END
> <Name>
MTV2022_4

> <Clean Energy>
-0.00935317

$$$$
MTV2022_5
  SciTegic12132405553D

 40 40  0  0  0  0            999 V2000
   -4.3377    1.3121   -0.0001 C   0  0
   -5.5695    0.5196   -0.0003 C   0  0
   -5.5042   -0.8107   -0.0002 C   0  0
   -4.1994   -1.4804    0.0001 C   0  0
   -3.0787   -0.7589    0.0003 C   0  0
   -3.1521    0.7048    0.0002 C   0  0
   -1.8958    1.5274    0.0004 C   0  0
   -0.7356    0.6807    0.0005 N   0  0
    0.4732    1.2371    0.0005 C   0  0
    1.7091    0.3830    0.0005 C   0  0
    2.9513    1.2981    0.0003 C   0  0
    4.2346    0.4466    0.0002 C   0  0
    5.4635    1.3771    0.0000 C   0  0
    6.7519    0.5333   -0.0001 C   0  0
    7.9775    1.4666   -0.0004 C   0  0
    9.2664    0.6236   -0.0005 C   0  0
    0.5800    2.4694    0.0005 O   0  0
   -4.3912    2.4008   -0.0002 H   0  0
   -6.5388    1.0182   -0.0006 H   0  0
   -6.4202   -1.4015   -0.0003 H   0  0
   -4.1462   -2.5690    0.0002 H   0  0
   -2.1091   -1.2568    0.0006 H   0  0
   -1.8798    2.1564   -0.8897 H   0  0
   -1.8800    2.1562    0.8906 H   0  0
   -0.8419   -0.3840    0.0005 H   0  0
    1.7186   -0.2459    0.8907 H   0  0
    1.7185   -0.2461   -0.8895 H   0  0
    2.9358    1.9270   -0.8899 H   0  0
    2.9360    1.9271    0.8904 H   0  0
    4.2543   -0.1820    0.8904 H   0  0
    4.2541   -0.1822   -0.8898 H   0  0
    5.4419    2.0057   -0.8902 H   0  0
    5.4422    2.0059    0.8901 H   0  0
    6.7743   -0.0953    0.8901 H   0  0
    6.7741   -0.0955   -0.8902 H   0  0
    7.9549    2.0952   -0.8906 H   0  0
    7.9552    2.0954    0.8897 H   0  0
   10.1333    1.2842   -0.0007 H   0  0
    9.2896   -0.0056   -0.8904 H   0  0
    9.2899   -0.0054    0.8894 H   0  0
  1  2  1  0
  2  3  2  0
  3  4  1  0
  4  5  2  0
  5  6  1  0
  1  6  2  0
  6  7  1  0
  7  8  1  0
  8  9  1  0
  9 10  1  0
 10 11  1  0
 11 12  1  0
 12 13  1  0
 13 14  1  0
 14 15  1  0
 15 16  1  0
  9 17  2  0
  1 18  1  0
  2 19  1  0
  3 20  1  0
  4 21  1  0
  5 22  1  0
  7 23  1  0
  7 24  1  0
  8 25  1  0
 10 26  1  0
 10 27  1  0
 11 28  1  0
 11 29  1  0
 12 30  1  0
 12 31  1  0
 13 32  1  0
 13 33  1  0
 14 34  1  0
 14 35  1  0
 15 36  1  0
 15 37  1  0
 16 38  1  0
 16 39  1  0
 16 40  1  0
M  END
> <Name>
MTV2022_5

> <Clean Energy>
-2.11515

$$$$
MTV2022_6
  SciTegic12132405553D

 32 32  0  0  0  0            999 V2000
   -3.7970    1.2882   -0.0005 C   0  0
   -5.0853    0.5928   -0.0004 C   0  0
   -5.1230   -0.7386    0.0001 C   0  0
   -3.8744   -1.5073    0.0005 C   0  0
   -2.7020   -0.8745    0.0005 C   0  0
   -2.6616    0.5904   -0.0001 C   0  0
   -1.3810    1.2947   -0.0001 C   0  0
   -0.2319    0.6212    0.0002 C   0  0
    1.0248    1.3668    0.0001 C   0  0
    2.1908    0.7270    0.0004 N   0  0
    3.4068    1.4897    0.0003 C   0  0
    4.6225    0.5483    0.0002 C   0  0
    5.9114    1.3925    0.0000 C   0  0
    7.1388    0.4637   -0.0001 C   0  0
    1.0035    2.6016   -0.0003 O   0  0
   -3.7664    2.3778   -0.0009 H   0  0
   -6.0134    1.1644   -0.0007 H   0  0
   -6.0820   -1.2567    0.0001 H   0  0
   -3.9054   -2.5969    0.0009 H   0  0
   -1.7738   -1.4458    0.0008 H   0  0
   -1.3661    2.3846   -0.0005 H   0  0
   -0.2290   -0.4687    0.0006 H   0  0
    2.2220   -0.3425    0.0007 H   0  0
    3.4377    2.1179   -0.8899 H   0  0
    3.4379    2.1180    0.8904 H   0  0
    4.5978   -0.0802    0.8904 H   0  0
    4.5976   -0.0803   -0.8899 H   0  0
    5.9327    2.0212   -0.8902 H   0  0
    5.9329    2.0212    0.8901 H   0  0
    8.0489    1.0635   -0.0003 H   0  0
    7.1188   -0.1655   -0.8900 H   0  0
    7.1190   -0.1654    0.8898 H   0  0
  1  2  1  0
  2  3  2  0
  3  4  1  0
  4  5  2  0
  5  6  1  0
  1  6  2  0
  6  7  1  0
  7  8  2  0
  8  9  1  0
  9 10  1  0
 10 11  1  0
 11 12  1  0
 12 13  1  0
 13 14  1  0
  9 15  2  0
  1 16  1  0
  2 17  1  0
  3 18  1  0
  4 19  1  0
  5 20  1  0
  7 21  1  0
  8 22  1  0
 10 23  1  0
 11 24  1  0
 11 25  1  0
 12 26  1  0
 12 27  1  0
 13 28  1  0
 13 29  1  0
 14 30  1  0
 14 31  1  0
 14 32  1  0
M  END
> <Name>
MTV2022_6

> <Clean Energy>
-1.751

$$$$
MTV2022_7
  SciTegic12132405553D

 33 33  0  0  0  0            999 V2000
   -3.6273    1.3284   -0.0005 C   0  0
   -4.9178    0.6386   -0.0005 C   0  0
   -4.9605   -0.6925    0.0000 C   0  0
   -3.7145   -1.4664    0.0004 C   0  0
   -2.5394   -0.8379    0.0004 C   0  0
   -2.4950    0.6276   -0.0001 C   0  0
   -1.2124    1.3296   -0.0001 C   0  0
   -0.0625    0.6592    0.0002 C   0  0
    1.1919    1.4092    0.0001 C   0  0
    2.3611    0.7770    0.0004 N   0  0
    3.5726    1.5472    0.0003 C   0  0
    4.7951    0.6147    0.0002 C   0  0
    6.0779    1.4682    0.0000 C   0  0
    7.3121    0.5486   -0.0001 C   0  0
    1.1641    2.6451   -0.0002 O   0  0
   -6.1876   -1.3474    0.0000 O   0  0
   -3.5929    2.4178   -0.0009 H   0  0
   -5.8436    1.2138   -0.0008 H   0  0
   -3.7498   -2.5558    0.0008 H   0  0
   -1.6130   -1.4122    0.0008 H   0  0
   -1.1976    2.4195   -0.0005 H   0  0
   -0.0565   -0.4308    0.0006 H   0  0
    2.3989   -0.2923    0.0007 H   0  0
    3.5994    2.1757   -0.8899 H   0  0
    3.5995    2.1757    0.8904 H   0  0
    4.7749   -0.0140    0.8904 H   0  0
    4.7747   -0.0141   -0.8899 H   0  0
    6.0946    2.0971   -0.8902 H   0  0
    6.0948    2.0971    0.8901 H   0  0
    8.2178    1.1550   -0.0003 H   0  0
    7.2968   -0.0808   -0.8900 H   0  0
    7.2970   -0.0807    0.8898 H   0  0
   -6.7300   -1.0756    0.8570 H   0  0
  1  2  1  0
  2  3  2  0
  3  4  1  0
  4  5  2  0
  5  6  1  0
  1  6  2  0
  6  7  1  0
  7  8  2  0
  8  9  1  0
  9 10  1  0
 10 11  1  0
 11 12  1  0
 12 13  1  0
 13 14  1  0
  9 15  2  0
  3 16  1  0
  1 17  1  0
  2 18  1  0
  4 19  1  0
  5 20  1  0
  7 21  1  0
  8 22  1  0
 10 23  1  0
 11 24  1  0
 11 25  1  0
 12 26  1  0
 12 27  1  0
 13 28  1  0
 13 29  1  0
 14 30  1  0
 14 31  1  0
 14 32  1  0
 16 33  1  0
M  END
> <Name>
MTV2022_7

> <Clean Energy>
-1.849

$$$$
MTV2022_8
  SciTegic12132405553D

 36 36  0  0  0  0            999 V2000
   -3.4597    1.3296   -0.0002 C   0  0
   -4.7457    0.6326   -0.0001 C   0  0
   -4.7858   -0.7011    0.0003 C   0  0
   -3.5322   -1.4650    0.0005 C   0  0
   -2.3609   -0.8296    0.0004 C   0  0
   -2.3232    0.6349    0.0001 C   0  0
   -1.0456    1.3453    0.0000 C   0  0
    0.1090    0.6812    0.0002 C   0  0
    1.3584    1.4402    0.0001 C   0  0
    2.5312    0.8130    0.0003 N   0  0
    3.7392    1.5888    0.0002 C   0  0
    4.9645    0.6597    0.0001 C   0  0
    6.2454    1.5160   -0.0001 C   0  0
    7.4812    0.5984   -0.0001 C   0  0
    1.3238    2.6746   -0.0002 O   0  0
   -6.0145   -1.3875    0.0004 O   0  0
   -7.1268   -0.4767    0.0001 C   0  0
   -3.4314    2.4193   -0.0004 H   0  0
   -5.6738    1.2042   -0.0003 H   0  0
   -3.5595   -2.5546    0.0008 H   0  0
   -1.4315   -1.3991    0.0006 H   0  0
   -1.0377    2.4353   -0.0003 H   0  0
    0.1220   -0.4087    0.0005 H   0  0
    2.5739   -0.2561    0.0006 H   0  0
    3.7636    2.2173   -0.8900 H   0  0
    3.7638    2.2174    0.8902 H   0  0
    4.9459    0.0310    0.8903 H   0  0
    4.9457    0.0308   -0.8900 H   0  0
    6.2608    2.1448   -0.8902 H   0  0
    6.2610    2.1449    0.8900 H   0  0
    8.3858    1.2064   -0.0002 H   0  0
    7.4670   -0.0310   -0.8899 H   0  0
    7.4672   -0.0309    0.8898 H   0  0
   -8.0592   -1.0412    0.0002 H   0  0
   -7.0828    0.1510   -0.8900 H   0  0
   -7.0829    0.1515    0.8898 H   0  0
  1  2  1  0
  2  3  2  0
  3  4  1  0
  4  5  2  0
  5  6  1  0
  1  6  2  0
  6  7  1  0
  7  8  2  0
  8  9  1  0
  9 10  1  0
 10 11  1  0
 11 12  1  0
 12 13  1  0
 13 14  1  0
  9 15  2  0
  3 16  1  0
 16 17  1  0
  1 18  1  0
  2 19  1  0
  4 20  1  0
  5 21  1  0
  7 22  1  0
  8 23  1  0
 10 24  1  0
 11 25  1  0
 11 26  1  0
 12 27  1  0
 12 28  1  0
 13 29  1  0
 13 30  1  0
 14 31  1  0
 14 32  1  0
 14 33  1  0
 17 34  1  0
 17 35  1  0
 17 36  1  0
M  END
> <Name>
MTV2022_8

> <Clean Energy>
-1.6047

$$$$
MTV2022_9
  SciTegic12132405553D

 34 34  0  0  0  0            999 V2000
   -3.4866    1.3085    0.0002 C   0  0
   -4.7753    0.6164   -0.0001 C   0  0
   -4.8162   -0.7145    0.0004 C   0  0
   -3.5693   -1.4865    0.0001 C   0  0
   -2.3954   -0.8559    0.0003 C   0  0
   -2.3531    0.6096    0.0000 C   0  0
   -1.0720    1.3138    0.0001 C   0  0
    0.0787    0.6444    0.0002 C   0  0
    1.3329    1.3949    0.0001 C   0  0
    2.5019    0.7618    0.0002 N   0  0
    3.7145    1.5303    0.0002 C   0  0
    4.9349    0.5949    0.0001 C   0  0
    6.2201    1.4448    0.0000 C   0  0
    7.4516    0.5213   -0.0002 C   0  0
    1.3055    2.6305    0.0000 O   0  0
   -6.0423   -1.3710    0.0001 O   0  0
   -5.9575    1.3488    0.0001 O   0  0
   -3.4541    2.3980    0.0006 H   0  0
   -3.6027   -2.5760   -0.0002 H   0  0
   -1.4680   -1.4287    0.0007 H   0  0
   -1.0587    2.4037    0.0001 H   0  0
    0.0855   -0.4456    0.0003 H   0  0
    2.5385   -0.3076    0.0004 H   0  0
    3.7424    2.1588   -0.8899 H   0  0
    3.7426    2.1587    0.8903 H   0  0
    4.9131   -0.0338    0.8902 H   0  0
    4.9129   -0.0338   -0.8901 H   0  0
    6.2387    2.0736   -0.8902 H   0  0
    6.2388    2.0736    0.8901 H   0  0
    8.3591    1.1251   -0.0002 H   0  0
    7.4344   -0.1079   -0.8900 H   0  0
    7.4346   -0.1080    0.8897 H   0  0
   -6.5852   -1.0998    0.8570 H   0  0
   -5.9949    1.9537    0.8575 H   0  0
  1  2  1  0
  2  3  2  0
  3  4  1  0
  4  5  2  0
  5  6  1  0
  1  6  2  0
  6  7  1  0
  7  8  2  0
  8  9  1  0
  9 10  1  0
 10 11  1  0
 11 12  1  0
 12 13  1  0
 13 14  1  0
  9 15  2  0
  3 16  1  0
  2 17  1  0
  1 18  1  0
  4 19  1  0
  5 20  1  0
  7 21  1  0
  8 22  1  0
 10 23  1  0
 11 24  1  0
 11 25  1  0
 12 26  1  0
 12 27  1  0
 13 28  1  0
 13 29  1  0
 14 30  1  0
 14 31  1  0
 14 32  1  0
 16 33  1  0
 17 34  1  0
M  END
> <Name>
MTV2022_9

> <Clean Energy>
-2.05093

$$$$
MTV2022_10
  SciTegic12132405553D

 37 37  0  0  0  0            999 V2000
   -3.3403    1.2639    0.0001 C   0  0
   -4.6433    0.5789    0.0004 C   0  0
   -4.6551   -0.7781    0.0001 C   0  0
   -3.3786   -1.5106    0.0002 C   0  0
   -2.2162   -0.8658    0.0001 C   0  0
   -2.1972    0.5846    0.0002 C   0  0
   -0.9248    1.3064    0.0001 C   0  0
    0.2321    0.6470    0.0002 C   0  0
    1.4844    1.4020    0.0001 C   0  0
    2.6545    0.7700    0.0002 N   0  0
    3.8681    1.5374    0.0002 C   0  0
    5.0877    0.5997    0.0001 C   0  0
    6.3749    1.4470    0.0000 C   0  0
    7.6050    0.5214   -0.0001 C   0  0
    1.4545    2.6376    0.0000 O   0  0
   -5.8184   -1.5525    0.0003 O   0  0
   -5.8022    1.4567    0.0002 O   0  0
   -7.1143    0.8753    0.0003 C   0  0
   -3.3119    2.3535   -0.0001 H   0  0
   -3.3866   -2.6005    0.0004 H   0  0
   -1.2806   -1.4251    0.0000 H   0  0
   -0.9237    2.3964    0.0001 H   0  0
    0.2454   -0.4429    0.0002 H   0  0
    2.6912   -0.2993    0.0003 H   0  0
    3.8969    2.1659   -0.8900 H   0  0
    3.8970    2.1658    0.8903 H   0  0
    5.0647   -0.0290    0.8902 H   0  0
    5.0646   -0.0290   -0.8901 H   0  0
    6.3946    2.0758   -0.8902 H   0  0
    6.3948    2.0758    0.8901 H   0  0
    8.5135    1.1236   -0.0002 H   0  0
    7.5868   -0.1079   -0.8900 H   0  0
    7.5869   -0.1079    0.8897 H   0  0
   -6.3841   -1.3350    0.8577 H   0  0
   -7.8632    1.6672    0.0002 H   0  0
   -7.2389    0.2583    0.8903 H   0  0
   -7.2389    0.2581   -0.8895 H   0  0
  1  2  1  0
  2  3  2  0
  3  4  1  0
  4  5  2  0
  5  6  1  0
  1  6  2  0
  6  7  1  0
  7  8  2  0
  8  9  1  0
  9 10  1  0
 10 11  1  0
 11 12  1  0
 12 13  1  0
 13 14  1  0
  9 15  2  0
  3 16  1  0
  2 17  1  0
 17 18  1  0
  1 19  1  0
  4 20  1  0
  5 21  1  0
  7 22  1  0
  8 23  1  0
 10 24  1  0
 11 25  1  0
 11 26  1  0
 12 27  1  0
 12 28  1  0
 13 29  1  0
 13 30  1  0
 14 31  1  0
 14 32  1  0
 14 33  1  0
 16 34  1  0
 18 35  1  0
 18 36  1  0
 18 37  1  0
M  END
> <Name>
MTV2022_10

> <Clean Energy>
4.59723

$$$$
MTV2022_11
  SciTegic12132405553D

 35 36  0  0  0  0            999 V2000
    1.4066   -3.4734   -0.0001 C   0  0
    0.1514   -4.2234    0.0003 C   0  0
   -0.9982   -3.5520   -0.0003 C   0  0
    1.3794   -2.2378   -0.0008 O   0  0
    2.5758   -4.1063    0.0004 N   0  0
    3.7881   -3.3366    0.0001 C   0  0
    5.0103   -4.2700    0.0004 C   0  0
    6.2941   -3.4176    0.0000 C   0  0
    7.5277   -4.3384    0.0003 C   0  0
   -4.7079   -5.5740    0.0006 C   0  0
   -5.9765   -5.9976    0.0008 O   0  0
   -6.8503   -4.8502    0.0000 C   0  0
   -5.9023   -3.7647   -0.0006 O   0  0
   -4.6654   -4.2721   -0.0002 C   0  0
   -3.4155   -3.5437   -0.0005 C   0  0
   -2.2820   -4.2520    0.0000 C   0  0
   -2.3282   -5.7469    0.0010 C   0  0
   -3.5043   -6.3840    0.0012 C   0  0
    0.1569   -5.3134    0.0009 H   0  0
   -0.9822   -2.4621   -0.0009 H   0  0
    2.6130   -5.1757    0.0010 H   0  0
    3.8154   -2.7077    0.8899 H   0  0
    3.8153   -2.7085   -0.8903 H   0  0
    4.9896   -4.8984    0.8908 H   0  0
    4.9895   -4.8991   -0.8894 H   0  0
    6.3114   -2.7891   -0.8904 H   0  0
    6.3115   -2.7883    0.8899 H   0  0
    8.4338   -3.7327    0.0000 H   0  0
    7.5119   -4.9681   -0.8893 H   0  0
    7.5120   -4.9673    0.8905 H   0  0
   -7.4789   -4.8297   -0.8902 H   0  0
   -7.4791   -4.8286    0.8900 H   0  0
   -3.3986   -2.4538   -0.0012 H   0  0
   -1.4005   -6.3190    0.0014 H   0  0
   -3.5566   -7.4727    0.0019 H   0  0
  1  2  1  0
  2  3  2  0
  5  1  1  0
  4  1  2  0
  6  7  1  0
  7  8  1  0
  8  9  1  0
  5  6  1  0
 10 11  1  0
 11 12  1  0
 12 13  1  0
 13 14  1  0
 10 14  2  0
 14 15  1  0
 15 16  2  0
 16 17  1  0
 17 18  2  0
 10 18  1  0
  3 16  1  0
  2 19  1  0
  3 20  1  0
  5 21  1  0
  6 22  1  0
  6 23  1  0
  7 24  1  0
  7 25  1  0
  8 26  1  0
  8 27  1  0
  9 28  1  0
  9 29  1  0
  9 30  1  0
 12 31  1  0
 12 32  1  0
 15 33  1  0
 17 34  1  0
 18 35  1  0
M  END
> <Name>
MTV2022_11

> <Clean Energy>
11.8495

$$$$
MTV2022_12
  SciTegic12132405553D

 38 38  0  0  0  0            999 V2000
    0.5160   -3.5579   -0.0001 C   0  0
   -0.7438   -4.3015    0.0000 C   0  0
   -1.8894   -3.6207    0.0000 C   0  0
    0.4950   -2.3233   -0.0002 O   0  0
    1.6839   -4.1964    0.0000 N   0  0
    2.8965   -3.4252   -0.0001 C   0  0
    4.1271   -4.3494    0.0002 C   0  0
    5.3988   -3.4780    0.0001 C   0  0
    6.6516   -4.3717    0.0005 C   0  0
   -5.6574   -5.6093    0.0001 C   0  0
   -5.6029   -4.2786    0.0002 C   0  0
   -4.3057   -3.5997    0.0002 C   0  0
   -3.1787   -4.3115    0.0000 C   0  0
   -3.2378   -5.7758   -0.0001 C   0  0
   -4.4183   -6.3936    0.0000 C   0  0
    7.9090   -3.4810    0.0003 C   0  0
    9.1692   -4.3653    0.0007 C   0  0
   -0.7454   -5.3915    0.0000 H   0  0
   -1.8652   -2.5310    0.0000 H   0  0
    1.7193   -5.2658    0.0001 H   0  0
    2.9209   -2.7964    0.8899 H   0  0
    2.9210   -2.7968   -0.8904 H   0  0
    4.1134   -4.9781    0.8905 H   0  0
    4.1136   -4.9785   -0.8898 H   0  0
    5.4048   -2.8492   -0.8902 H   0  0
    5.4046   -2.8488    0.8901 H   0  0
    6.6505   -5.0006    0.8908 H   0  0
    6.6507   -5.0010   -0.8895 H   0  0
   -6.6228   -6.1153    0.0002 H   0  0
   -6.5236   -3.6952    0.0004 H   0  0
   -4.2615   -2.5106    0.0003 H   0  0
   -2.3169   -6.3589   -0.0002 H   0  0
   -4.4630   -7.4827   -0.0001 H   0  0
    7.9077   -2.8521   -0.8900 H   0  0
    7.9075   -2.8516    0.8903 H   0  0
   10.0572   -3.7332    0.0006 H   0  0
    9.1720   -4.9950   -0.8890 H   0  0
    9.1719   -4.9945    0.8907 H   0  0
  1  2  1  0
  2  3  2  0
  5  1  1  0
  4  1  2  0
  6  7  1  0
  7  8  1  0
  8  9  1  0
  5  6  1  0
 10 11  2  0
 11 12  1  0
 12 13  2  0
 13 14  1  0
 14 15  2  0
 10 15  1  0
  3 13  1  0
  9 16  1  0
 16 17  1  0
  2 18  1  0
  3 19  1  0
  5 20  1  0
  6 21  1  0
  6 22  1  0
  7 23  1  0
  7 24  1  0
  8 25  1  0
  8 26  1  0
  9 27  1  0
  9 28  1  0
 10 29  1  0
 11 30  1  0
 12 31  1  0
 14 32  1  0
 15 33  1  0
 16 34  1  0
 16 35  1  0
 17 36  1  0
 17 37  1  0
 17 38  1  0
M  END
> <Name>
MTV2022_12

> <Clean Energy>
-1.94199

$$$$
MTV2022_13
  SciTegic12132405553D

 39 39  0  0  0  0            999 V2000
    0.6908   -3.5249   -0.0001 C   0  0
   -0.5664   -4.2749    0.0000 C   0  0
   -1.7138   -3.5968    0.0000 C   0  0
    0.6633   -2.2904   -0.0003 O   0  0
    1.8627   -4.1565    0.0000 N   0  0
    3.0715   -3.3777   -0.0001 C   0  0
    4.3082   -4.2944    0.0002 C   0  0
    5.5758   -3.4164    0.0001 C   0  0
    6.8331   -4.3045    0.0005 C   0  0
   -5.4899   -5.5721    0.0003 C   0  0
   -5.4289   -4.2421    0.0003 C   0  0
   -4.1293   -3.5697    0.0002 C   0  0
   -3.0051   -4.2858    0.0001 C   0  0
   -3.0702   -5.7504    0.0000 C   0  0
   -4.2538   -6.3630    0.0001 C   0  0
    8.0873   -3.4090    0.0003 C   0  0
    9.3509   -4.2888    0.0007 C   0  0
   -6.7261   -6.2104    0.0004 O   0  0
   -0.5642   -5.3649    0.0000 H   0  0
   -1.6900   -2.5071    0.0000 H   0  0
    1.9045   -5.2257    0.0001 H   0  0
    3.0920   -2.7487    0.8898 H   0  0
    3.0921   -2.7492   -0.8904 H   0  0
    4.2980   -4.9232    0.8905 H   0  0
    4.2981   -4.9237   -0.8897 H   0  0
    5.5788   -2.7876   -0.8902 H   0  0
    5.5786   -2.7871    0.8901 H   0  0
    6.8347   -4.9334    0.8908 H   0  0
    6.8348   -4.9339   -0.8895 H   0  0
   -6.3468   -3.6543    0.0005 H   0  0
   -4.0805   -2.4808    0.0003 H   0  0
   -2.1519   -6.3375   -0.0001 H   0  0
   -4.3037   -7.4518    0.0000 H   0  0
    8.0837   -2.7802   -0.8900 H   0  0
    8.0835   -2.7797    0.8903 H   0  0
   10.2366   -3.6535    0.0006 H   0  0
    9.3561   -4.9185   -0.8890 H   0  0
    9.3559   -4.9180    0.8907 H   0  0
   -7.2645   -5.9316    0.8576 H   0  0
  1  2  1  0
  2  3  2  0
  5  1  1  0
  4  1  2  0
  6  7  1  0
  7  8  1  0
  8  9  1  0
  5  6  1  0
 10 11  2  0
 11 12  1  0
 12 13  2  0
 13 14  1  0
 14 15  2  0
 10 15  1  0
  3 13  1  0
  9 16  1  0
 16 17  1  0
 10 18  1  0
  2 19  1  0
  3 20  1  0
  5 21  1  0
  6 22  1  0
  6 23  1  0
  7 24  1  0
  7 25  1  0
  8 26  1  0
  8 27  1  0
  9 28  1  0
  9 29  1  0
 11 30  1  0
 12 31  1  0
 14 32  1  0
 15 33  1  0
 16 34  1  0
 16 35  1  0
 17 36  1  0
 17 37  1  0
 17 38  1  0
 18 39  1  0
M  END
> <Name>
MTV2022_13

> <Clean Energy>
-2.03423

$$$$
MTV2022_14
  SciTegic12132405553D

 42 42  0  0  0  0            999 V2000
    0.8640   -3.4990   -0.0001 C   0  0
   -0.3889   -4.2579    0.0000 C   0  0
   -1.5413   -3.5880   -0.0001 C   0  0
    0.8288   -2.2649   -0.0003 O   0  0
    2.0399   -4.1240    0.0001 N   0  0
    3.2456   -3.3397    0.0000 C   0  0
    4.4854   -4.2531    0.0003 C   0  0
    5.7522   -3.3736    0.0002 C   0  0
    7.0101   -4.2615    0.0005 C   0  0
   -5.3099   -5.5903    0.0000 C   0  0
   -5.2524   -4.2575   -0.0001 C   0  0
   -3.9570   -3.5771   -0.0001 C   0  0
   -2.8286   -4.2860   -0.0001 C   0  0
   -2.8856   -5.7501    0.0000 C   0  0
   -4.0654   -6.3703    0.0000 C   0  0
    8.2649   -3.3666    0.0003 C   0  0
    9.5280   -4.2473    0.0006 C   0  0
   -6.5480   -6.2610    0.0000 O   0  0
   -7.6489   -5.3360    0.0000 C   0  0
   -0.3790   -5.3479    0.0001 H   0  0
   -1.5251   -2.4981   -0.0002 H   0  0
    2.0870   -5.1930    0.0002 H   0  0
    3.2638   -2.7107    0.8900 H   0  0
    3.2640   -2.7111   -0.8903 H   0  0
    4.4765   -4.8819    0.8906 H   0  0
    4.4766   -4.8823   -0.8897 H   0  0
    5.7548   -2.7447   -0.8901 H   0  0
    5.7546   -2.7442    0.8902 H   0  0
    7.0116   -4.8904    0.8908 H   0  0
    7.0117   -4.8908   -0.8895 H   0  0
   -6.1729   -3.6737   -0.0001 H   0  0
   -3.9149   -2.4879   -0.0002 H   0  0
   -1.9638   -6.3317    0.0000 H   0  0
   -4.1068   -7.4595    0.0001 H   0  0
    8.2616   -2.7378   -0.8900 H   0  0
    8.2614   -2.7373    0.8903 H   0  0
   10.4141   -3.6125    0.0005 H   0  0
    9.5328   -4.8770   -0.8891 H   0  0
    9.5326   -4.8765    0.8907 H   0  0
   -8.5884   -5.8887    0.0000 H   0  0
   -7.5970   -4.7087   -0.8899 H   0  0
   -7.5970   -4.7086    0.8898 H   0  0
  1  2  1  0
  2  3  2  0
  5  1  1  0
  4  1  2  0
  6  7  1  0
  7  8  1  0
  8  9  1  0
  5  6  1  0
 10 11  2  0
 11 12  1  0
 12 13  2  0
 13 14  1  0
 14 15  2  0
 10 15  1  0
  3 13  1  0
  9 16  1  0
 16 17  1  0
 10 18  1  0
 18 19  1  0
  2 20  1  0
  3 21  1  0
  5 22  1  0
  6 23  1  0
  6 24  1  0
  7 25  1  0
  7 26  1  0
  8 27  1  0
  8 28  1  0
  9 29  1  0
  9 30  1  0
 11 31  1  0
 12 32  1  0
 14 33  1  0
 15 34  1  0
 16 35  1  0
 16 36  1  0
 17 37  1  0
 17 38  1  0
 17 39  1  0
 19 40  1  0
 19 41  1  0
 19 42  1  0
M  END
> <Name>
MTV2022_14

> <Clean Energy>
-1.79123

$$$$
MTV2022_15
  SciTegic12132405553D

 40 40  0  0  0  0            999 V2000
    0.8393   -3.5345   -0.0001 C   0  0
   -0.4185   -4.2846    0.0000 C   0  0
   -1.5671   -3.6101   -0.0002 C   0  0
    0.8111   -2.2988   -0.0005 O   0  0
    2.0113   -4.1652    0.0001 N   0  0
    3.2217   -3.3880    0.0000 C   0  0
    4.4575   -4.3071    0.0003 C   0  0
    5.7278   -3.4322    0.0001 C   0  0
    6.9834   -4.3236    0.0005 C   0  0
   -5.3373   -5.5986   -0.0010 C   0  0
   -5.2809   -4.2682    0.0011 C   0  0
   -3.9836   -3.5912   -0.0009 C   0  0
   -2.8575   -4.3026    0.0004 C   0  0
   -2.9171   -5.7679   -0.0003 C   0  0
   -4.0987   -6.3847    0.0009 C   0  0
    8.2403   -3.4314    0.0003 C   0  0
    9.5018   -4.3143    0.0007 C   0  0
   -6.5713   -6.2409    0.0004 O   0  0
   -6.4549   -3.5222   -0.0005 O   0  0
   -0.4149   -5.3746    0.0002 H   0  0
   -1.5462   -2.5203   -0.0008 H   0  0
    2.0526   -5.2344    0.0004 H   0  0
    3.2432   -2.7590    0.8899 H   0  0
    3.2434   -2.7596   -0.8904 H   0  0
    4.4460   -4.9358    0.8907 H   0  0
    4.4461   -4.9364   -0.8896 H   0  0
    5.7324   -2.8034   -0.8902 H   0  0
    5.7323   -2.8028    0.8901 H   0  0
    6.9833   -4.9524    0.8909 H   0  0
    6.9835   -4.9530   -0.8894 H   0  0
   -3.9387   -2.5022   -0.0036 H   0  0
   -1.9966   -6.3516   -0.0019 H   0  0
   -4.1448   -7.4737    0.0033 H   0  0
    8.2382   -2.8026   -0.8901 H   0  0
    8.2381   -2.8020    0.8902 H   0  0
   10.3891   -3.6812    0.0005 H   0  0
    9.5054   -4.9441   -0.8890 H   0  0
    9.5053   -4.9435    0.8908 H   0  0
   -7.1088   -5.9652    0.8593 H   0  0
   -7.0141   -3.7506   -0.8594 H   0  0
  1  2  1  0
  2  3  2  0
  5  1  1  0
  4  1  2  0
  6  7  1  0
  7  8  1  0
  8  9  1  0
  5  6  1  0
 10 11  2  0
 11 12  1  0
 12 13  2  0
 13 14  1  0
 14 15  2  0
 10 15  1  0
  3 13  1  0
  9 16  1  0
 16 17  1  0
 10 18  1  0
 11 19  1  0
  2 20  1  0
  3 21  1  0
  5 22  1  0
  6 23  1  0
  6 24  1  0
  7 25  1  0
  7 26  1  0
  8 27  1  0
  8 28  1  0
  9 29  1  0
  9 30  1  0
 12 31  1  0
 14 32  1  0
 15 33  1  0
 16 34  1  0
 16 35  1  0
 17 36  1  0
 17 37  1  0
 17 38  1  0
 18 39  1  0
 19 40  1  0
M  END
> <Name>
MTV2022_15

> <Clean Energy>
-2.23864

$$$$
MTV2022_16
  SciTegic12132405553D

 43 43  0  0  0  0            999 V2000
    0.9976   -3.5246   -0.0001 C   0  0
   -0.2603   -4.2796    0.0000 C   0  0
   -1.4165   -3.6160   -0.0003 C   0  0
    0.9674   -2.2890   -0.0005 O   0  0
    2.1714   -4.1549    0.0002 N   0  0
    3.3852   -3.3796    0.0000 C   0  0
    4.6216   -4.3017    0.0004 C   0  0
    5.8957   -3.4295    0.0001 C   0  0
    7.1521   -4.3222    0.0005 C   0  0
   -5.1730   -5.6673    0.0002 C   0  0
   -5.1481   -4.3106   -0.0005 C   0  0
   -3.8366   -3.6381   -0.0004 C   0  0
   -2.6992   -4.3283   -0.0002 C   0  0
   -2.7337   -5.7788    0.0003 C   0  0
   -3.9031   -6.4119    0.0003 C   0  0
    8.4103   -3.4301    0.0003 C   0  0
    9.6729   -4.3124    0.0007 C   0  0
   -6.3442   -6.4306    0.0002 O   0  0
   -6.2995   -3.4217   -0.0006 O   0  0
   -7.6177   -3.9908   -0.0006 C   0  0
   -0.2497   -5.3695    0.0004 H   0  0
   -1.4087   -2.5260   -0.0006 H   0  0
    2.2119   -5.2241    0.0005 H   0  0
    3.4079   -2.7507    0.8899 H   0  0
    3.4080   -2.7513   -0.8903 H   0  0
    4.6089   -4.9304    0.8908 H   0  0
    4.6090   -4.9310   -0.8895 H   0  0
    5.9013   -2.8007   -0.8902 H   0  0
    5.9012   -2.8001    0.8901 H   0  0
    7.1517   -4.9510    0.8909 H   0  0
    7.1518   -4.9517   -0.8894 H   0  0
   -3.7976   -2.5488   -0.0004 H   0  0
   -1.8040   -6.3478    0.0007 H   0  0
   -3.9217   -7.5017    0.0004 H   0  0
    8.4083   -2.8014   -0.8901 H   0  0
    8.4082   -2.8007    0.8902 H   0  0
   10.5597   -3.6787    0.0005 H   0  0
    9.6769   -4.9423   -0.8890 H   0  0
    9.6768   -4.9416    0.8908 H   0  0
   -6.9083   -6.2069    0.8571 H   0  0
   -8.3591   -3.1918   -0.0007 H   0  0
   -7.7482   -4.6066    0.8894 H   0  0
   -7.7481   -4.6068   -0.8904 H   0  0
  1  2  1  0
  2  3  2  0
  5  1  1  0
  4  1  2  0
  6  7  1  0
  7  8  1  0
  8  9  1  0
  5  6  1  0
 10 11  2  0
 11 12  1  0
 12 13  2  0
 13 14  1  0
 14 15  2  0
 10 15  1  0
  3 13  1  0
  9 16  1  0
 16 17  1  0
 10 18  1  0
 11 19  1  0
 19 20  1  0
  2 21  1  0
  3 22  1  0
  5 23  1  0
  6 24  1  0
  6 25  1  0
  7 26  1  0
  7 27  1  0
  8 28  1  0
  8 29  1  0
  9 30  1  0
  9 31  1  0
 12 32  1  0
 14 33  1  0
 15 34  1  0
 16 35  1  0
 16 36  1  0
 17 37  1  0
 17 38  1  0
 17 39  1  0
 18 40  1  0
 20 41  1  0
 20 42  1  0
 20 43  1  0
M  END
> <Name>
MTV2022_16

> <Clean Energy>
4.41736

$$$$
MTV2022_17
  SciTegic12132405553D

 41 42  0  0  0  0            999 V2000
    0.9880   -3.5242   -0.0001 C   0  0
   -0.2721   -4.2743    0.0000 C   0  0
   -1.4202   -3.5990   -0.0002 C   0  0
    0.9597   -2.2883   -0.0004 O   0  0
    2.1609   -4.1544    0.0001 N   0  0
    3.3722   -3.3759    0.0000 C   0  0
    4.6108   -4.2932    0.0004 C   0  0
    5.8811   -3.4163    0.0002 C   0  0
    7.1391   -4.3056    0.0005 C   0  0
   -5.1577   -5.5846   -0.0001 C   0  0
   -5.1005   -4.2799   -0.0003 C   0  0
   -3.8407   -3.5680   -0.0004 C   0  0
   -2.7148   -4.2873   -0.0002 C   0  0
   -2.7786   -5.7828    0.0001 C   0  0
   -3.9623   -6.4057    0.0002 C   0  0
    8.3952   -3.4111    0.0003 C   0  0
    9.6587   -4.2918    0.0007 C   0  0
   -6.4317   -5.9920    0.0000 O   0  0
   -7.2930   -4.8352   -0.0003 C   0  0
   -6.3323   -3.7607   -0.0005 O   0  0
   -0.2692   -5.3643    0.0003 H   0  0
   -1.3968   -2.5092   -0.0005 H   0  0
    2.2027   -5.2236    0.0004 H   0  0
    3.3930   -2.7470    0.8900 H   0  0
    3.3931   -2.7475   -0.8903 H   0  0
    4.6003   -4.9219    0.8907 H   0  0
    4.6004   -4.9225   -0.8896 H   0  0
    5.8846   -2.7874   -0.8902 H   0  0
    5.8845   -2.7869    0.8901 H   0  0
    7.1402   -4.9344    0.8909 H   0  0
    7.1403   -4.9349   -0.8894 H   0  0
   -3.8111   -2.4784   -0.0006 H   0  0
   -1.8577   -6.3660    0.0003 H   0  0
   -4.0263   -7.4938    0.0004 H   0  0
    8.3920   -2.7824   -0.8901 H   0  0
    8.3919   -2.7818    0.8902 H   0  0
   10.5447   -3.6570    0.0005 H   0  0
    9.6635   -4.9216   -0.8890 H   0  0
    9.6634   -4.9210    0.8907 H   0  0
   -7.9214   -4.8073   -0.8905 H   0  0
   -7.9215   -4.8069    0.8898 H   0  0
  1  2  1  0
  2  3  2  0
  5  1  1  0
  4  1  2  0
  6  7  1  0
  7  8  1  0
  8  9  1  0
  5  6  1  0
 10 11  2  0
 11 12  1  0
 12 13  2  0
 13 14  1  0
 14 15  2  0
 10 15  1  0
  3 13  1  0
  9 16  1  0
 16 17  1  0
 18 19  1  0
 19 20  1  0
 10 18  1  0
 11 20  1  0
  2 21  1  0
  3 22  1  0
  5 23  1  0
  6 24  1  0
  6 25  1  0
  7 26  1  0
  7 27  1  0
  8 28  1  0
  8 29  1  0
  9 30  1  0
  9 31  1  0
 12 32  1  0
 14 33  1  0
 15 34  1  0
 16 35  1  0
 16 36  1  0
 17 37  1  0
 17 38  1  0
 17 39  1  0
 19 40  1  0
 19 41  1  0
M  END
> <Name>
MTV2022_17

> <Clean Energy>
11.7042

$$$$
MTV2022_18
  SciTegic12132405553D

 33 33  0  0  0  0            999 V2000
    0.9908   -3.3590    0.0002 C   0  0
   -0.2852   -4.1499    0.0000 C   0  0
   -1.4462   -3.4982    0.0004 C   0  0
    2.1572   -4.2520   -0.0001 N   0  0
    3.3738   -3.4255    0.0002 C   0  0
    4.6262   -4.3183    0.0000 C   0  0
    5.8802   -3.4223    0.0004 C   0  0
    7.1449   -4.2995    0.0001 C   0  0
   -5.1619   -5.5816   -0.0001 C   0  0
   -5.1414   -4.2498    0.0006 C   0  0
   -3.8617   -3.5385    0.0007 C   0  0
   -2.7180   -4.2207    0.0002 C   0  0
   -2.7388   -5.6866   -0.0005 C   0  0
   -3.9035   -6.3342   -0.0006 C   0  0
    1.0218   -2.7304   -0.8897 H   0  0
    1.0218   -2.7310    0.8906 H   0  0
   -0.2616   -5.2397   -0.0005 H   0  0
   -1.4490   -2.4082    0.0009 H   0  0
    2.1397   -4.8690   -0.8742 H   0  0
    3.3808   -2.7968    0.8906 H   0  0
    3.3809   -2.7962   -0.8897 H   0  0
    4.6266   -4.9477    0.8899 H   0  0
    4.6267   -4.9470   -0.8904 H   0  0
    5.8759   -2.7928   -0.8895 H   0  0
    5.8758   -2.7936    0.8908 H   0  0
    8.0294   -3.6626    0.0004 H   0  0
    7.1512   -4.9286   -0.8900 H   0  0
    7.1511   -4.9293    0.8897 H   0  0
   -6.1141   -6.1120   -0.0002 H   0  0
   -6.0766   -3.6900    0.0010 H   0  0
   -3.8451   -2.4486    0.0013 H   0  0
   -1.8032   -6.2458   -0.0009 H   0  0
   -3.9206   -7.4241   -0.0012 H   0  0
  1  2  1  0
  2  3  2  0
  4  1  1  0
  5  6  1  0
  6  7  1  0
  7  8  1  0
  4  5  1  0
  9 10  2  0
 10 11  1  0
 11 12  2  0
 12 13  1  0
 13 14  2  0
  9 14  1  0
  3 12  1  0
  1 15  1  0
  1 16  1  0
  2 17  1  0
  3 18  1  0
  4 19  1  0
  5 20  1  0
  5 21  1  0
  6 22  1  0
  6 23  1  0
  7 24  1  0
  7 25  1  0
  8 26  1  0
  8 27  1  0
  8 28  1  0
  9 29  1  0
 10 30  1  0
 11 31  1  0
 13 32  1  0
 14 33  1  0
M  END
> <Name>
MTV2022_18

> <Clean Energy>
-1.37798

$$$$
MTV2022_19
  SciTegic12132405553D

 37 37  0  0  0  0            999 V2000
    1.3433   -3.2950    0.0003 C   0  0
    0.0745   -4.0986    0.0000 C   0  0
   -1.0909   -3.4530    0.0004 C   0  0
    2.5198   -4.1742   -0.0001 N   0  0
    3.7264   -3.3325    0.0003 C   0  0
    4.9897   -4.2098    0.0000 C   0  0
    6.2331   -3.2991    0.0004 C   0  0
    7.5078   -4.1618    0.0001 C   0  0
   -4.8146   -5.5313   -0.0003 C   0  0
   -4.7841   -4.1983    0.0004 C   0  0
   -3.5043   -3.4915    0.0006 C   0  0
   -2.3612   -4.1777    0.0002 C   0  0
   -2.3881   -5.6423   -0.0006 C   0  0
   -3.5546   -6.2866   -0.0008 C   0  0
   -6.0386   -6.2266   -0.0005 O   0  0
   -7.1571   -5.3229    0.0001 C   0  0
    1.3675   -2.6661   -0.8896 H   0  0
    1.3675   -2.6668    0.8907 H   0  0
    0.1065   -5.1882   -0.0005 H   0  0
   -1.0977   -2.3630    0.0010 H   0  0
    2.5097   -4.7912   -0.8742 H   0  0
    3.7257   -2.7038    0.8908 H   0  0
    3.7258   -2.7030   -0.8895 H   0  0
    4.9976   -4.8393    0.8898 H   0  0
    4.9977   -4.8384   -0.8905 H   0  0
    6.2215   -2.6697   -0.8894 H   0  0
    6.2214   -2.6706    0.8909 H   0  0
    8.3850   -3.5149    0.0004 H   0  0
    7.5213   -4.7908   -0.8901 H   0  0
    7.5212   -4.7916    0.8896 H   0  0
   -5.7165   -3.6337    0.0008 H   0  0
   -3.4846   -2.4017    0.0012 H   0  0
   -1.4544   -6.2047   -0.0010 H   0  0
   -3.5739   -7.3765   -0.0014 H   0  0
   -8.0858   -5.8934   -0.0001 H   0  0
   -7.1173   -4.6941   -0.8895 H   0  0
   -7.1172   -4.6951    0.8903 H   0  0
  1  2  1  0
  2  3  2  0
  4  1  1  0
  5  6  1  0
  6  7  1  0
  7  8  1  0
  4  5  1  0
  9 10  2  0
 10 11  1  0
 11 12  2  0
 12 13  1  0
 13 14  2  0
  9 14  1  0
  3 12  1  0
  9 15  1  0
 15 16  1  0
  1 17  1  0
  1 18  1  0
  2 19  1  0
  3 20  1  0
  4 21  1  0
  5 22  1  0
  5 23  1  0
  6 24  1  0
  6 25  1  0
  7 26  1  0
  7 27  1  0
  8 28  1  0
  8 29  1  0
  8 30  1  0
 10 31  1  0
 11 32  1  0
 13 33  1  0
 14 34  1  0
 16 35  1  0
 16 36  1  0
 16 37  1  0
M  END
> <Name>
MTV2022_19

> <Clean Energy>
-1.20484

$$$$
MTV2022_20
  SciTegic12132405553D

 39 39  0  0  0  0            999 V2000
    0.5160   -3.4150    0.0002 C   0  0
   -0.7667   -4.1982    0.0000 C   0  0
   -1.9221   -3.5382    0.0004 C   0  0
    1.6821   -4.3110   -0.0001 N   0  0
    2.9000   -3.4838    0.0002 C   0  0
    4.1585   -4.3708   -0.0001 C   0  0
    5.4048   -3.4631    0.0001 C   0  0
    6.6825   -4.3213   -0.0002 C   0  0
   -5.6640   -5.5789    0.0000 C   0  0
   -5.6280   -4.2471    0.0006 C   0  0
   -4.3387   -3.5519    0.0007 C   0  0
   -3.2049   -4.2458    0.0002 C   0  0
   -3.2414   -5.7125   -0.0004 C   0  0
   -4.4148   -6.3461   -0.0005 C   0  0
    7.9150   -3.3964    0.0000 C   0  0
    9.1989   -4.2461   -0.0004 C   0  0
    0.5496   -2.7865   -0.8898 H   0  0
    0.5497   -2.7870    0.8905 H   0  0
   -0.7508   -5.2881   -0.0005 H   0  0
   -1.9140   -2.4483    0.0008 H   0  0
    1.6640   -4.9280   -0.8741 H   0  0
    2.9055   -2.8550    0.8905 H   0  0
    2.9054   -2.8544   -0.8898 H   0  0
    4.1634   -5.0001    0.8898 H   0  0
    4.1634   -4.9996   -0.8905 H   0  0
    5.3928   -2.8338   -0.8898 H   0  0
    5.3929   -2.8344    0.8905 H   0  0
    6.6990   -4.9504    0.8897 H   0  0
    6.6989   -4.9499   -0.8906 H   0  0
   -6.6224   -6.0981   -0.0001 H   0  0
   -6.5563   -3.6759    0.0009 H   0  0
   -4.3089   -2.4623    0.0012 H   0  0
   -2.3123   -6.2825   -0.0008 H   0  0
   -4.4452   -7.4357   -0.0010 H   0  0
    7.8964   -2.7673   -0.8899 H   0  0
    7.8965   -2.7679    0.8903 H   0  0
   10.0694   -3.5901   -0.0002 H   0  0
    9.2188   -4.8750   -0.8905 H   0  0
    9.2189   -4.8756    0.8893 H   0  0
  1  2  1  0
  2  3  2  0
  4  1  1  0
  5  6  1  0
  6  7  1  0
  7  8  1  0
  4  5  1  0
  9 10  2  0
 10 11  1  0
 11 12  2  0
 12 13  1  0
 13 14  2  0
  9 14  1  0
  3 12  1  0
  8 15  1  0
 15 16  1  0
  1 17  1  0
  1 18  1  0
  2 19  1  0
  3 20  1  0
  4 21  1  0
  5 22  1  0
  5 23  1  0
  6 24  1  0
  6 25  1  0
  7 26  1  0
  7 27  1  0
  8 28  1  0
  8 29  1  0
  9 30  1  0
 10 31  1  0
 11 32  1  0
 13 33  1  0
 14 34  1  0
 15 35  1  0
 15 36  1  0
 16 37  1  0
 16 38  1  0
 16 39  1  0
M  END
> <Name>
MTV2022_20

> <Clean Energy>
-1.58959

$$$$
MTV2022_21
  SciTegic12132405553D

 43 43  0  0  0  0            999 V2000
    0.8849   -3.3662    0.0001 C   0  0
   -0.3912   -4.1644    0.0000 C   0  0
   -1.5519   -3.5125    0.0003 C   0  0
    2.0638   -4.2466   -0.0001 N   0  0
    3.2731   -3.4036    0.0001 C   0  0
    4.5423   -4.2770   -0.0001 C   0  0
    5.7824   -3.3593    0.0001 C   0  0
    7.0660   -4.2105   -0.0002 C   0  0
   -5.3057   -5.5469    0.0003 C   0  0
   -5.2586   -4.2124    0.0008 C   0  0
   -3.9674   -3.5241    0.0008 C   0  0
   -2.8356   -4.2217    0.0003 C   0  0
   -2.8792   -5.6881   -0.0002 C   0  0
   -4.0555   -6.3167   -0.0002 C   0  0
    8.2953   -3.2808   -0.0001 C   0  0
    9.5824   -4.1264   -0.0003 C   0  0
   -6.5395   -6.2252    0.0003 O   0  0
   -7.6469   -5.3079    0.0008 C   0  0
    0.9108   -2.7375   -0.8900 H   0  0
    0.9109   -2.7378    0.8903 H   0  0
   -0.3654   -5.2541   -0.0003 H   0  0
   -1.5481   -2.4225    0.0007 H   0  0
    2.0538   -4.8639   -0.8740 H   0  0
    3.2712   -2.7747    0.8903 H   0  0
    3.2711   -2.7743   -0.8899 H   0  0
    4.5531   -4.9062    0.8899 H   0  0
    4.5530   -4.9058   -0.8904 H   0  0
    5.7662   -2.7303   -0.8899 H   0  0
    5.7663   -2.7307    0.8903 H   0  0
    7.0855   -4.8394    0.8898 H   0  0
    7.0854   -4.8391   -0.8905 H   0  0
   -6.1832   -3.6351    0.0011 H   0  0
   -3.9333   -2.4347    0.0011 H   0  0
   -1.9527   -6.2624   -0.0006 H   0  0
   -4.0888   -7.4062   -0.0006 H   0  0
    8.2744   -2.6519   -0.8901 H   0  0
    8.2745   -2.6523    0.8902 H   0  0
   10.4506   -3.4674   -0.0002 H   0  0
    9.6044   -4.7553   -0.8904 H   0  0
    9.6045   -4.7557    0.8894 H   0  0
   -8.5825   -5.8671    0.0008 H   0  0
   -7.5996   -4.6799   -0.8888 H   0  0
   -7.5992   -4.6805    0.8909 H   0  0
  1  2  1  0
  2  3  2  0
  4  1  1  0
  5  6  1  0
  6  7  1  0
  7  8  1  0
  4  5  1  0
  9 10  2  0
 10 11  1  0
 11 12  2  0
 12 13  1  0
 13 14  2  0
  9 14  1  0
  3 12  1  0
  8 15  1  0
 15 16  1  0
  9 17  1  0
 17 18  1  0
  1 19  1  0
  1 20  1  0
  2 21  1  0
  3 22  1  0
  4 23  1  0
  5 24  1  0
  5 25  1  0
  6 26  1  0
  6 27  1  0
  7 28  1  0
  7 29  1  0
  8 30  1  0
  8 31  1  0
 10 32  1  0
 11 33  1  0
 13 34  1  0
 14 35  1  0
 15 36  1  0
 15 37  1  0
 16 38  1  0
 16 39  1  0
 16 40  1  0
 18 41  1  0
 18 42  1  0
 18 43  1  0
M  END
> <Name>
MTV2022_21

> <Clean Energy>
-1.40532

$$$$
MTV2022_22
  SciTegic12132405553D

 41 42  0  0  0  0            999 V2000
   -5.0933   -5.0991   -0.1751 C   0  0
   -4.9462   -3.8632    0.2983 C   0  0
   -3.6102   -3.2664    0.3962 C   0  0
   -2.5339   -3.9527    0.0169 C   0  0
   -2.7064   -5.3217   -0.5180 C   0  0
   -3.9211   -5.8618   -0.6031 C   0  0
   -5.8206   -3.2939    0.6137 H   0  0
   -6.0868   -5.5421   -0.2437 H   0  0
   -1.1584   -3.2770    0.1270 C   0  0
    0.0163   -4.1355   -0.2075 N   0  0
    0.2293   -5.1922    0.8182 C   0  0
    1.4469   -6.0494    0.4255 C   0  0
    2.6423   -5.1965    0.3859 N   0  0
    2.4602   -4.1246   -0.6151 C   0  0
    1.2211   -3.2773   -0.2445 C   0  0
    3.8166   -6.0200    0.0506 C   0  0
    5.0991   -5.1690    0.1156 C   0  0
    6.3166   -6.0592   -0.1925 C   0  0
    7.6048   -5.2249   -0.0765 C   0  0
   -3.4973   -2.2534    0.7824 H   0  0
   -1.8356   -5.8906   -0.8437 H   0  0
   -4.0415   -6.8729   -0.9920 H   0  0
   -1.1509   -2.4221   -0.5491 H   0  0
   -1.0376   -2.9303    1.1533 H   0  0
   -0.6564   -5.8247    0.8777 H   0  0
    0.4098   -4.7269    1.7872 H   0  0
    1.5880   -6.8415    1.1609 H   0  0
    1.2807   -6.4907   -0.5572 H   0  0
    3.3445   -3.4875   -0.6298 H   0  0
    2.3151   -4.5684   -1.6000 H   0  0
    1.3727   -2.8251    0.7356 H   0  0
    1.0835   -2.4935   -0.9894 H   0  0
    3.8941   -6.8427    0.7614 H   0  0
    3.7004   -6.4194   -0.9570 H   0  0
    5.0405   -4.3656   -0.6187 H   0  0
    5.2030   -4.7430    1.1135 H   0  0
    6.3528   -6.8840    0.5191 H   0  0
    6.2303   -6.4551   -1.2044 H   0  0
    8.4671   -5.8548   -0.2946 H   0  0
    7.6916   -4.8285    0.9352 H   0  0
    7.5691   -4.3996   -0.7877 H   0  0
  1  2  2  0
  2  3  1  0
  3  4  2  0
  4  5  1  0
  5  6  2  0
  1  6  1  0
  2  7  1  0
  1  8  1  0
  4  9  1  0
  9 10  1  0
 11 12  1  0
 12 13  1  0
 13 14  1  0
 14 15  1  0
 10 11  1  0
 10 15  1  0
 13 16  1  0
 16 17  1  0
 17 18  1  0
 18 19  1  0
  3 20  1  0
  5 21  1  0
  6 22  1  0
  9 23  1  0
  9 24  1  0
 11 25  1  0
 11 26  1  0
 12 27  1  0
 12 28  1  0
 14 29  1  0
 14 30  1  0
 15 31  1  0
 15 32  1  0
 16 33  1  0
 16 34  1  0
 17 35  1  0
 17 36  1  0
 18 37  1  0
 18 38  1  0
 19 39  1  0
 19 40  1  0
 19 41  1  0
M  END
> <Name>
MTV2022_22

> <Clean Energy>
1.31874

$$$$
MTV2022_23
  SciTegic12132405553D

 45 46  0  0  0  0            999 V2000
   -4.9764   -5.2325   -0.1529 C   0  0
   -4.8529   -3.9697    0.2807 C   0  0
   -3.5276   -3.3482    0.3696 C   0  0
   -2.4365   -4.0252    0.0247 C   0  0
   -2.5809   -5.4156   -0.4624 C   0  0
   -3.7831   -5.9793   -0.5384 C   0  0
   -5.7393   -3.4040    0.5677 H   0  0
   -1.0715   -3.3224    0.1217 C   0  0
    0.1201   -4.1628   -0.2059 N   0  0
    0.3576   -5.2041    0.8296 C   0  0
    1.5843   -6.0463    0.4361 C   0  0
    2.7659   -5.1768    0.3815 N   0  0
    2.5624   -4.1161   -0.6280 C   0  0
    1.3107   -3.2846   -0.2589 C   0  0
    3.9493   -5.9882    0.0484 C   0  0
    5.2226   -5.1240    0.1073 C   0  0
    6.4484   -6.0062   -0.1918 C   0  0
    7.7296   -5.1615   -0.0757 C   0  0
   -6.2388   -5.8434   -0.2462 O   0  0
   -7.2914   -4.9569    0.1619 C   0  0
   -3.4362   -2.3208    0.7219 H   0  0
   -1.6975   -5.9802   -0.7604 H   0  0
   -3.8779   -7.0063   -0.8911 H   0  0
   -1.0821   -2.4762   -0.5653 H   0  0
   -0.9541   -2.9605    1.1431 H   0  0
   -0.5178   -5.8494    0.9036 H   0  0
    0.5390   -4.7252    1.7918 H   0  0
    1.7418   -6.8300    1.1771 H   0  0
    1.4182   -6.4982   -0.5418 H   0  0
    3.4364   -3.4652   -0.6519 H   0  0
    2.4201   -4.5705   -1.6085 H   0  0
    1.4603   -2.8196    0.7155 H   0  0
    1.1559   -2.5112   -1.0112 H   0  0
    4.0368   -6.8067    0.7629 H   0  0
    3.8360   -6.3935   -0.9571 H   0  0
    5.1572   -4.3278   -0.6342 H   0  0
    5.3214   -4.6881    1.1015 H   0  0
    6.4885   -6.8269    0.5243 H   0  0
    6.3687   -6.4081   -1.2018 H   0  0
    8.5975   -5.7860   -0.2875 H   0  0
    7.8099   -4.7591    0.9341 H   0  0
    7.6901   -4.3404   -0.7915 H   0  0
   -8.2507   -5.4669    0.0751 H   0  0
   -7.2911   -4.0735   -0.4766 H   0  0
   -7.1328   -4.6562    1.1976 H   0  0
  1  2  2  0
  2  3  1  0
  3  4  2  0
  4  5  1  0
  5  6  2  0
  1  6  1  0
  2  7  1  0
  4  8  1  0
  8  9  1  0
 10 11  1  0
 11 12  1  0
 12 13  1  0
 13 14  1  0
  9 10  1  0
  9 14  1  0
 12 15  1  0
 15 16  1  0
 16 17  1  0
 17 18  1  0
  1 19  1  0
 19 20  1  0
  3 21  1  0
  5 22  1  0
  6 23  1  0
  8 24  1  0
  8 25  1  0
 10 26  1  0
 10 27  1  0
 11 28  1  0
 11 29  1  0
 13 30  1  0
 13 31  1  0
 14 32  1  0
 14 33  1  0
 15 34  1  0
 15 35  1  0
 16 36  1  0
 16 37  1  0
 17 38  1  0
 17 39  1  0
 18 40  1  0
 18 41  1  0
 18 42  1  0
 20 43  1  0
 20 44  1  0
 20 45  1  0
M  END
> <Name>
MTV2022_23

> <Clean Energy>
1.58075

$$$$
MTV2022_24
  SciTegic12132405553D

 47 48  0  0  0  0            999 V2000
   -5.5021   -5.0673   -0.1638 C   0  0
   -5.3526   -3.8274    0.2956 C   0  0
   -4.0192   -3.2283    0.3863 C   0  0
   -2.9373   -3.9230    0.0108 C   0  0
   -3.1171   -5.2951   -0.5074 C   0  0
   -4.3290   -5.8357   -0.5852 C   0  0
   -6.2267   -3.2548    0.6058 H   0  0
   -1.5659   -3.2419    0.1146 C   0  0
   -0.3868   -4.0975   -0.2198 N   0  0
   -0.1693   -5.1523    0.8060 C   0  0
    1.0545   -6.0017    0.4158 C   0  0
    2.2446   -5.1414    0.3810 N   0  0
    2.0605   -4.0713   -0.6208 C   0  0
    0.8141   -3.2320   -0.2551 C   0  0
    3.4259   -5.9582    0.0543 C   0  0
    4.7062   -5.1063    0.1425 C   0  0
    5.9266   -6.0019   -0.1336 C   0  0
    7.2166   -5.1846    0.0476 C   0  0
   -6.4961   -5.5103   -0.2262 H   0  0
    8.4344   -6.0946   -0.1937 C   0  0
    9.7281   -5.2900    0.0263 C   0  0
   -3.9066   -2.2112    0.7617 H   0  0
   -2.2480   -5.8692   -0.8287 H   0  0
   -4.4496   -6.8511   -0.9628 H   0  0
   -1.5638   -2.3897   -0.5650 H   0  0
   -1.4440   -2.8905    1.1391 H   0  0
   -1.0511   -5.7905    0.8636 H   0  0
    0.0062   -4.6859    1.7753 H   0  0
    1.1981   -6.7939    1.1506 H   0  0
    0.8940   -6.4427   -0.5680 H   0  0
    2.9408   -3.4286   -0.6318 H   0  0
    1.9225   -4.5162   -1.6063 H   0  0
    0.9601   -2.7773    0.7248 H   0  0
    0.6737   -2.4503   -1.0016 H   0  0
    3.4961   -6.7867    0.7592 H   0  0
    3.3235   -6.3494   -0.9579 H   0  0
    4.6647   -4.3075   -0.5979 H   0  0
    4.7889   -4.6741    1.1398 H   0  0
    5.9270   -6.8397    0.5636 H   0  0
    5.8763   -6.3787   -1.1552 H   0  0
    7.2297   -4.3621   -0.6675 H   0  0
    7.2554   -4.7860    1.0614 H   0  0
    8.4051   -6.9326    0.5027 H   0  0
    8.4100   -6.4704   -1.2165 H   0  0
   10.5906   -5.9341   -0.1445 H   0  0
    9.7531   -4.9137    1.0490 H   0  0
    9.7579   -4.4516   -0.6697 H   0  0
  1  2  2  0
  2  3  1  0
  3  4  2  0
  4  5  1  0
  5  6  2  0
  1  6  1  0
  2  7  1  0
  4  8  1  0
  8  9  1  0
 10 11  1  0
 11 12  1  0
 12 13  1  0
 13 14  1  0
  9 10  1  0
  9 14  1  0
 12 15  1  0
 15 16  1  0
 16 17  1  0
 17 18  1  0
  1 19  1  0
 18 20  1  0
 20 21  1  0
  3 22  1  0
  5 23  1  0
  6 24  1  0
  8 25  1  0
  8 26  1  0
 10 27  1  0
 10 28  1  0
 11 29  1  0
 11 30  1  0
 13 31  1  0
 13 32  1  0
 14 33  1  0
 14 34  1  0
 15 35  1  0
 15 36  1  0
 16 37  1  0
 16 38  1  0
 17 39  1  0
 17 40  1  0
 18 41  1  0
 18 42  1  0
 20 43  1  0
 20 44  1  0
 21 45  1  0
 21 46  1  0
 21 47  1  0
M  END
> <Name>
MTV2022_24

> <Clean Energy>
1.20919

$$$$
MTV2022_25
  SciTegic12132405553D

 51 52  0  0  0  0            999 V2000
   -5.3889   -5.1898   -0.1432 C   0  0
   -5.2594   -3.9330    0.2696 C   0  0
   -3.9330   -3.3104    0.3546 C   0  0
   -2.8406   -4.0014    0.0190 C   0  0
   -2.9925   -5.3941   -0.4475 C   0  0
   -4.1984   -5.9568   -0.5189 C   0  0
   -6.1445   -3.3606    0.5470 H   0  0
   -1.4757   -3.2963    0.1109 C   0  0
   -0.2795   -4.1325   -0.2182 N   0  0
   -0.0372   -5.1745    0.8142 C   0  0
    1.1983   -6.0052    0.4226 C   0  0
    2.3741   -5.1264    0.3763 N   0  0
    2.1676   -4.0656   -0.6314 C   0  0
    0.9065   -3.2455   -0.2659 C   0  0
    3.5650   -5.9302    0.0498 C   0  0
    4.8395   -5.0687    0.1327 C   0  0
    6.0633   -5.9630   -0.1372 C   0  0
    7.3543   -5.1471    0.0440 C   0  0
   -6.6548   -5.8030   -0.2333 O   0  0
    8.5701   -6.0626   -0.1899 C   0  0
    9.8669   -5.2633    0.0311 C   0  0
   -7.7033   -4.9024    0.1610 C   0  0
   -3.8391   -2.2787    0.6933 H   0  0
   -2.1110   -5.9668   -0.7358 H   0  0
   -4.2992   -6.9881   -0.8571 H   0  0
   -1.4906   -2.4511   -0.5773 H   0  0
   -1.3570   -2.9325    1.1315 H   0  0
   -0.9074   -5.8274    0.8828 H   0  0
    0.1365   -4.6972    1.7786 H   0  0
    1.3588   -6.7906    1.1611 H   0  0
    1.0399   -6.4546   -0.5578 H   0  0
    3.0363   -3.4074   -0.6493 H   0  0
    2.0341   -4.5187   -1.6138 H   0  0
    1.0488   -2.7807    0.7097 H   0  0
    0.7486   -2.4723   -1.0178 H   0  0
    3.6444   -6.7562    0.7565 H   0  0
    3.4646   -6.3248   -0.9613 H   0  0
    4.7943   -4.2755   -0.6136 H   0  0
    4.9199   -4.6288    1.1268 H   0  0
    6.0621   -6.7986    0.5627 H   0  0
    6.0157   -6.3431   -1.1577 H   0  0
    7.3715   -4.3280   -0.6749 H   0  0
    7.3913   -4.7438    1.0560 H   0  0
    8.5351   -6.8980    0.5094 H   0  0
    8.5474   -6.4421   -1.2114 H   0  0
   10.7269   -5.9121   -0.1346 H   0  0
    9.8905   -4.8834    1.0525 H   0  0
    9.9028   -4.4276   -0.6678 H   0  0
   -8.6660   -5.4071    0.0797 H   0  0
   -7.6959   -4.0281   -0.4900 H   0  0
   -7.5444   -4.5882    1.1925 H   0  0
  1  2  2  0
  2  3  1  0
  3  4  2  0
  4  5  1  0
  5  6  2  0
  1  6  1  0
  2  7  1  0
  4  8  1  0
  8  9  1  0
 10 11  1  0
 11 12  1  0
 12 13  1  0
 13 14  1  0
  9 10  1  0
  9 14  1  0
 12 15  1  0
 15 16  1  0
 16 17  1  0
 17 18  1  0
  1 19  1  0
 18 20  1  0
 20 21  1  0
 19 22  1  0
  3 23  1  0
  5 24  1  0
  6 25  1  0
  8 26  1  0
  8 27  1  0
 10 28  1  0
 10 29  1  0
 11 30  1  0
 11 31  1  0
 13 32  1  0
 13 33  1  0
 14 34  1  0
 14 35  1  0
 15 36  1  0
 15 37  1  0
 16 38  1  0
 16 39  1  0
 17 40  1  0
 17 41  1  0
 18 42  1  0
 18 43  1  0
 20 44  1  0
 20 45  1  0
 21 46  1  0
 21 47  1  0
 21 48  1  0
 22 49  1  0
 22 50  1  0
 22 51  1  0
M  END
> <Name>
MTV2022_25

> <Clean Energy>
1.53143

$$$$
MTV2022_26
  SciTegic12132405553D

 50 52  0  0  0  0            999 V2000
   -5.4195   -5.1634   -0.1913 C   0  0
   -5.2934   -3.8934    0.1175 C   0  0
   -3.9969   -3.2563    0.2261 C   0  0
   -2.9035   -3.9891    0.0012 C   0  0
   -3.0620   -5.4474   -0.3632 C   0  0
   -4.2738   -6.0012   -0.4460 C   0  0
   -1.5273   -3.2976    0.1008 C   0  0
   -0.3238   -4.1317   -0.2208 N   0  0
   -0.0813   -5.1849    0.7987 C   0  0
    1.1578   -6.0079    0.3980 C   0  0
    2.3334   -5.1273    0.3685 N   0  0
    2.1277   -4.0514   -0.6232 C   0  0
    0.8611   -3.2407   -0.2520 C   0  0
    3.5267   -5.9262    0.0329 C   0  0
    4.8046   -5.0701    0.1367 C   0  0
    6.0267   -5.9655   -0.1444 C   0  0
    7.3230   -5.1613    0.0576 C   0  0
    8.5340   -6.0806   -0.1908 C   0  0
    9.8363   -5.2953    0.0495 C   0  0
   -6.7104   -5.5021   -0.2285 O   0  0
   -7.5115   -4.3450    0.0790 C   0  0
   -6.4974   -3.3435    0.2934 O   0  0
   -3.9156   -2.2008    0.4859 H   0  0
   -2.1776   -6.0532   -0.5606 H   0  0
   -4.3935   -7.0548   -0.6984 H   0  0
   -1.5340   -2.4510   -0.5856 H   0  0
   -1.4138   -2.9364    1.1230 H   0  0
   -0.9499   -5.8406    0.8579 H   0  0
    0.0898   -4.7190    1.7692 H   0  0
    1.3171   -6.8043    1.1250 H   0  0
    1.0030   -6.4425   -0.5896 H   0  0
    2.9941   -3.3901   -0.6262 H   0  0
    2.0010   -4.4897   -1.6131 H   0  0
    0.9978   -2.7885    0.7302 H   0  0
    0.7040   -2.4581   -0.9942 H   0  0
    3.6014   -6.7651    0.7248 H   0  0
    3.4302   -6.3021   -0.9857 H   0  0
    4.7655   -4.2636   -0.5955 H   0  0
    4.8824   -4.6484    1.1388 H   0  0
    6.0177   -6.8140    0.5397 H   0  0
    5.9816   -6.3260   -1.1720 H   0  0
    7.3479   -4.3281   -0.6447 H   0  0
    7.3592   -4.7787    1.0776 H   0  0
    8.4911   -6.9293    0.4918 H   0  0
    8.5117   -6.4397   -1.2197 H   0  0
   10.6919   -5.9471   -0.1267 H   0  0
    9.8598   -4.9358    1.0782 H   0  0
    9.8804   -4.4463   -0.6328 H   0  0
   -8.1636   -4.0796   -0.7532 H   0  0
   -8.1114   -4.5027    0.9753 H   0  0
  1  2  2  0
  2  3  1  0
  3  4  2  0
  4  5  1  0
  5  6  2  0
  1  6  1  0
  4  7  1  0
  7  8  1  0
  9 10  1  0
 10 11  1  0
 11 12  1  0
 12 13  1  0
  8  9  1  0
  8 13  1  0
 11 14  1  0
 14 15  1  0
 15 16  1  0
 16 17  1  0
 17 18  1  0
 18 19  1  0
 20 21  1  0
 21 22  1  0
  1 20  1  0
  2 22  1  0
  3 23  1  0
  5 24  1  0
  6 25  1  0
  7 26  1  0
  7 27  1  0
  9 28  1  0
  9 29  1  0
 10 30  1  0
 10 31  1  0
 12 32  1  0
 12 33  1  0
 13 34  1  0
 13 35  1  0
 14 36  1  0
 14 37  1  0
 15 38  1  0
 15 39  1  0
 16 40  1  0
 16 41  1  0
 17 42  1  0
 17 43  1  0
 18 44  1  0
 18 45  1  0
 19 46  1  0
 19 47  1  0
 19 48  1  0
 21 49  1  0
 21 50  1  0
M  END
> <Name>
MTV2022_26

> <Clean Energy>
15.4837

$$$$
MTV2022_27
  SciTegic12132405553D

 44 45  0  0  0  0            999 V2000
   -5.0605   -5.2552    0.0043 C   0  0
   -4.8935   -3.9316   -0.0554 C   0  0
   -3.5399   -3.3508   -0.0473 C   0  0
   -2.4640   -4.1332    0.0230 C   0  0
   -2.6766   -5.5986    0.0866 C   0  0
   -3.8982   -6.1204    0.0768 C   0  0
   -1.0896   -3.4553    0.0257 C   0  0
    0.2165   -4.1050    0.1233 N   0  0
    0.3838   -5.5391    0.3198 C   0  0
    1.6894   -6.0863   -0.2469 C   0  0
    2.8087   -5.2894    0.2119 N   0  0
    2.6651   -3.9645   -0.4085 C   0  0
    1.3947   -3.2452    0.1194 C   0  0
    4.0360   -5.9463   -0.2598 C   0  0
    5.2838   -5.1907    0.2169 C   0  0
    6.5305   -5.9555   -0.2622 C   0  0
    7.7975   -5.2364    0.2278 C   0  0
   -6.3418   -5.8342   -0.0003 O   0  0
   -5.7636   -3.2774   -0.1104 H   0  0
   -1.0854   -2.2218   -0.0834 O   0  0
   -7.3718   -4.8401   -0.0718 C   0  0
   -3.4172   -2.2690   -0.0993 H   0  0
   -1.8132   -6.2615    0.1425 H   0  0
   -4.0277   -7.2017    0.1235 H   0  0
   -0.4449   -6.0523   -0.1679 H   0  0
    0.3601   -5.7449    1.3899 H   0  0
    1.8215   -7.1163    0.0843 H   0  0
    1.6492   -6.0566   -1.3358 H   0  0
    3.5418   -3.3617   -0.1713 H   0  0
    2.5862   -4.0824   -1.4892 H   0  0
    1.5835   -2.9095    1.1391 H   0  0
    1.1938   -2.3829   -0.5163 H   0  0
    4.0665   -6.9645    0.1281 H   0  0
    4.0299   -5.9720   -1.3494 H   0  0
    5.2864   -4.1843   -0.2019 H   0  0
    5.2844   -5.1318    1.3053 H   0  0
    6.5107   -6.9687    0.1391 H   0  0
    6.5349   -5.9955   -1.3515 H   0  0
    8.6789   -5.7798   -0.1126 H   0  0
    7.7945   -5.1959    1.3171 H   0  0
    7.8187   -4.2230   -0.1730 H   0  0
   -8.3473   -5.3263   -0.0731 H   0  0
   -7.2544   -4.2597   -0.9870 H   0  0
   -7.2980   -4.1771    0.7903 H   0  0
  1  2  2  0
  2  3  1  0
  3  4  2  0
  4  5  1  0
  5  6  2  0
  1  6  1  0
  4  7  1  0
  7  8  1  0
  9 10  1  0
 10 11  1  0
 11 12  1  0
 12 13  1  0
  8  9  1  0
  8 13  1  0
 11 14  1  0
 14 15  1  0
 15 16  1  0
 16 17  1  0
  1 18  1  0
  2 19  1  0
  7 20  2  0
 18 21  1  0
  3 22  1  0
  5 23  1  0
  6 24  1  0
  9 25  1  0
  9 26  1  0
 10 27  1  0
 10 28  1  0
 12 29  1  0
 12 30  1  0
 13 31  1  0
 13 32  1  0
 14 33  1  0
 14 34  1  0
 15 35  1  0
 15 36  1  0
 16 37  1  0
 16 38  1  0
 17 39  1  0
 17 40  1  0
 17 41  1  0
 21 42  1  0
 21 43  1  0
 21 44  1  0
M  END
> <Name>
MTV2022_27

> <Clean Energy>
10.2406

$$$$
MTV2022_28
  SciTegic12132405553D

 42 43  0  0  0  0            999 V2000
   -5.2475   -5.1943    0.0040 C   0  0
   -5.0682   -3.8763   -0.0384 C   0  0
   -3.7096   -3.3116   -0.0284 C   0  0
   -2.6411   -4.1087    0.0274 C   0  0
   -2.8705   -5.5733    0.0732 C   0  0
   -4.0988   -6.0801    0.0612 C   0  0
   -1.2618   -3.4412    0.0322 C   0  0
    0.0386   -4.1036    0.1220 N   0  0
    0.1947   -5.5396    0.3090 C   0  0
    1.5000   -6.0925   -0.2547 C   0  0
    2.6233   -5.3042    0.2110 N   0  0
    2.4896   -3.9768   -0.4054 C   0  0
    1.2231   -3.2513    0.1224 C   0  0
    3.8483   -5.9666   -0.2599 C   0  0
    5.0998   -5.2183    0.2197 C   0  0
    6.3433   -5.9879   -0.2609 C   0  0
    7.6137   -5.2752    0.2295 C   0  0
   -6.5319   -5.7255   -0.0055 O   0  0
   -6.1710   -3.0324   -0.0915 O   0  0
   -1.2472   -2.2090   -0.0671 O   0  0
   -3.5746   -2.2307   -0.0670 H   0  0
   -2.0149   -6.2471    0.1176 H   0  0
   -4.2438   -7.1600    0.0943 H   0  0
   -0.6350   -6.0434   -0.1868 H   0  0
    0.1637   -5.7529    1.3775 H   0  0
    1.6245   -7.1245    0.0733 H   0  0
    1.4640   -6.0586   -1.3436 H   0  0
    3.3697   -3.3805   -0.1647 H   0  0
    2.4119   -4.0908   -1.4866 H   0  0
    1.4125   -2.9198    1.1434 H   0  0
    1.0288   -2.3859   -0.5111 H   0  0
    3.8730   -6.9856    0.1263 H   0  0
    3.8436   -5.9906   -1.3496 H   0  0
    5.1076   -4.2108   -0.1962 H   0  0
    5.1001   -5.1626    1.3083 H   0  0
    6.3191   -7.0016    0.1390 H   0  0
    6.3470   -6.0264   -1.3502 H   0  0
    8.4925   -5.8220   -0.1121 H   0  0
    7.6115   -5.2362    1.3188 H   0  0
    7.6394   -4.2613   -0.1699 H   0  0
   -7.0634   -5.3724    0.8284 H   0  0
   -6.7319   -3.2424   -0.9540 H   0  0
  1  2  2  0
  2  3  1  0
  3  4  2  0
  4  5  1  0
  5  6  2  0
  1  6  1  0
  4  7  1  0
  7  8  1  0
  9 10  1  0
 10 11  1  0
 11 12  1  0
 12 13  1  0
  8  9  1  0
  8 13  1  0
 11 14  1  0
 14 15  1  0
 15 16  1  0
 16 17  1  0
  1 18  1  0
  2 19  1  0
  7 20  2  0
  3 21  1  0
  5 22  1  0
  6 23  1  0
  9 24  1  0
  9 25  1  0
 10 26  1  0
 10 27  1  0
 12 28  1  0
 12 29  1  0
 13 30  1  0
 13 31  1  0
 14 32  1  0
 14 33  1  0
 15 34  1  0
 15 35  1  0
 16 36  1  0
 16 37  1  0
 17 38  1  0
 17 39  1  0
 17 40  1  0
 18 41  1  0
 19 42  1  0
M  END
> <Name>
MTV2022_28

> <Clean Energy>
9.73396

$$$$
MTV2022_29
  SciTegic12132405553D

 50 51  0  0  0  0            999 V2000
   -5.6080   -5.1806    0.0090 C   0  0
   -5.4407   -3.8576   -0.0570 C   0  0
   -4.0876   -3.2774   -0.0545 C   0  0
   -3.0110   -4.0591    0.0168 C   0  0
   -3.2225   -5.5246    0.0874 C   0  0
   -4.4447   -6.0463    0.0828 C   0  0
   -1.6383   -3.3780    0.0137 C   0  0
   -0.3301   -4.0222    0.1132 N   0  0
   -0.1575   -5.4543    0.3166 C   0  0
    1.1581   -5.9964   -0.2316 C   0  0
    2.2696   -5.1884    0.2298 N   0  0
    2.1231   -3.8722   -0.4060 C   0  0
    0.8445   -3.1558    0.1060 C   0  0
    3.5000   -5.8473   -0.2287 C   0  0
    4.7527   -5.0907    0.2333 C   0  0
    5.9813   -5.8869   -0.2378 C   0  0
    7.2711   -5.1940    0.2201 C   0  0
   -6.8903   -5.7583    0.0099 O   0  0
   -1.6381   -2.1453   -0.1006 O   0  0
   -7.9194   -4.7628   -0.0636 C   0  0
    8.4764   -6.0252   -0.2549 C   0  0
    9.7805   -5.3458    0.1955 C   0  0
   -6.3108   -3.2035   -0.1129 H   0  0
   -3.9652   -2.1958   -0.1117 H   0  0
   -2.3588   -6.1871    0.1443 H   0  0
   -4.5743   -7.1274    0.1346 H   0  0
   -0.9772   -5.9737   -0.1798 H   0  0
   -0.1937   -5.6567    1.3871 H   0  0
    1.2939   -7.0224    0.1104 H   0  0
    1.1282   -5.9769   -1.3210 H   0  0
    2.9945   -3.2615   -0.1695 H   0  0
    2.0523   -4.0023   -1.4859 H   0  0
    1.0253   -2.8074    1.1229 H   0  0
    0.6423   -2.3020   -0.5407 H   0  0
    3.5299   -6.8598    0.1739 H   0  0
    3.4938   -5.8889   -1.3179 H   0  0
    4.7666   -4.0931   -0.2056 H   0  0
    4.7575   -5.0101    1.3203 H   0  0
    5.9428   -6.8909    0.1847 H   0  0
    5.9735   -5.9495   -1.3260 H   0  0
    7.3228   -4.1944   -0.2114 H   0  0
    7.2818   -5.1219    1.3076 H   0  0
   -8.8956   -5.2477   -0.0606 H   0  0
   -7.8034   -4.1867   -0.9816 H   0  0
   -7.8428   -4.0962    0.7954 H   0  0
    8.4204   -7.0246    0.1765 H   0  0
    8.4616   -6.0969   -1.3424 H   0  0
   10.6330   -5.9354   -0.1415 H   0  0
    9.7964   -5.2737    1.2830 H   0  0
    9.8376   -4.3462   -0.2354 H   0  0
  1  2  2  0
  2  3  1  0
  3  4  2  0
  4  5  1  0
  5  6  2  0
  1  6  1  0
  4  7  1  0
  7  8  1  0
  9 10  1  0
 10 11  1  0
 11 12  1  0
 12 13  1  0
  8  9  1  0
  8 13  1  0
 11 14  1  0
 14 15  1  0
 15 16  1  0
 16 17  1  0
  1 18  1  0
  7 19  2  0
 18 20  1  0
 17 21  1  0
 21 22  1  0
  2 23  1  0
  3 24  1  0
  5 25  1  0
  6 26  1  0
  9 27  1  0
  9 28  1  0
 10 29  1  0
 10 30  1  0
 12 31  1  0
 12 32  1  0
 13 33  1  0
 13 34  1  0
 14 35  1  0
 14 36  1  0
 15 37  1  0
 15 38  1  0
 16 39  1  0
 16 40  1  0
 17 41  1  0
 17 42  1  0
 20 43  1  0
 20 44  1  0
 20 45  1  0
 21 46  1  0
 21 47  1  0
 22 48  1  0
 22 49  1  0
 22 50  1  0
M  END
> <Name>
MTV2022_29

> <Clean Energy>
10.0303

$$$$
MTV2022_30
  SciTegic12132405553D

 48 49  0  0  0  0            999 V2000
   -5.6431   -5.1573    0.0108 C   0  0
   -5.4650   -3.8397   -0.0378 C   0  0
   -4.1073   -3.2739   -0.0341 C   0  0
   -3.0373   -4.0696    0.0220 C   0  0
   -3.2643   -5.5343    0.0748 C   0  0
   -4.4925   -6.0424    0.0685 C   0  0
   -1.6601   -3.3979    0.0204 C   0  0
   -0.3569   -4.0545    0.1114 N   0  0
   -0.1943   -5.4887    0.3051 C   0  0
    1.1215   -6.0358   -0.2400 C   0  0
    2.2366   -5.2355    0.2284 N   0  0
    2.0988   -3.9169   -0.4038 C   0  0
    0.8236   -3.1949    0.1081 C   0  0
    3.4658   -5.8988   -0.2288 C   0  0
    4.7212   -5.1473    0.2365 C   0  0
    5.9487   -5.9452   -0.2354 C   0  0
    7.2400   -5.2542    0.2222 C   0  0
   -6.9274   -5.6895    0.0074 O   0  0
   -1.6501   -2.1665   -0.0839 O   0  0
    8.4446   -6.0857   -0.2548 C   0  0
    9.7497   -5.4067    0.1936 C   0  0
   -6.5687   -2.9965   -0.0912 O   0  0
   -3.9736   -2.1930   -0.0778 H   0  0
   -2.4077   -6.2069    0.1196 H   0  0
   -4.6364   -7.1222    0.1067 H   0  0
   -1.0146   -5.9991   -0.1997 H   0  0
   -0.2378   -5.6987    1.3738 H   0  0
    1.2504   -7.0637    0.0989 H   0  0
    1.0959   -6.0124   -1.3294 H   0  0
    2.9733   -3.3119   -0.1640 H   0  0
    2.0292   -4.0435   -1.4842 H   0  0
    1.0049   -2.8502    1.1262 H   0  0
    0.6273   -2.3382   -0.5366 H   0  0
    3.4912   -6.9118    0.1727 H   0  0
    3.4615   -5.9391   -1.3181 H   0  0
    4.7383   -4.1484   -0.1996 H   0  0
    4.7251   -5.0697    1.3238 H   0  0
    5.9090   -6.9493    0.1869 H   0  0
    5.9404   -6.0077   -1.3236 H   0  0
    7.2922   -4.2541   -0.2080 H   0  0
    7.2517   -5.1835    1.3098 H   0  0
   -7.4567   -5.3331    0.8413 H   0  0
    8.3890   -7.0851    0.1765 H   0  0
    8.4280   -6.1572   -1.3423 H   0  0
   10.6015   -5.9965   -0.1448 H   0  0
    9.7674   -5.3347    1.2811 H   0  0
    9.8064   -4.4070   -0.2372 H   0  0
   -7.1319   -3.2104   -0.9511 H   0  0
  1  2  2  0
  2  3  1  0
  3  4  2  0
  4  5  1  0
  5  6  2  0
  1  6  1  0
  4  7  1  0
  7  8  1  0
  9 10  1  0
 10 11  1  0
 11 12  1  0
 12 13  1  0
  8  9  1  0
  8 13  1  0
 11 14  1  0
 14 15  1  0
 15 16  1  0
 16 17  1  0
  1 18  1  0
  7 19  2  0
 17 20  1  0
 20 21  1  0
  2 22  1  0
  3 23  1  0
  5 24  1  0
  6 25  1  0
  9 26  1  0
  9 27  1  0
 10 28  1  0
 10 29  1  0
 12 30  1  0
 12 31  1  0
 13 32  1  0
 13 33  1  0
 14 34  1  0
 14 35  1  0
 15 36  1  0
 15 37  1  0
 16 38  1  0
 16 39  1  0
 17 40  1  0
 17 41  1  0
 18 42  1  0
 20 43  1  0
 20 44  1  0
 21 45  1  0
 21 46  1  0
 21 47  1  0
 22 48  1  0
M  END
> <Name>
MTV2022_30

> <Clean Energy>
9.52665

$$$$
MTV2022_31
  SciTegic12132405553D

 43 45  0  0  0  0            999 V2000
   -5.6588   -5.2979    0.0692 C   0  0
   -5.5055   -3.9771   -0.0421 C   0  0
   -4.1590   -3.3956   -0.0651 C   0  0
   -3.0805   -4.1603    0.0337 C   0  0
   -3.2700   -5.6285    0.1612 C   0  0
   -4.4912   -6.1574    0.1728 C   0  0
   -1.7236   -3.4754   -0.0287 C   0  0
   -0.4115   -4.0845    0.0830 N   0  0
   -0.1946   -5.4709    0.4914 C   0  0
    1.1039   -6.0743   -0.0587 C   0  0
    2.2367   -5.1754    0.1440 N   0  0
    1.9463   -3.9945   -0.6994 C   0  0
    0.7314   -3.2240   -0.1383 C   0  0
    3.4510   -5.9212   -0.3122 C   0  0
    4.8132   -5.2478   -0.0907 C   0  0
   -6.9339   -5.8494    0.0847 O   0  0
   -1.7435   -2.2611   -0.2947 O   0  0
   -6.6220   -3.1582   -0.1375 O   0  0
    6.0202   -6.0040   -0.4424 C   0  0
    7.2274   -5.4728   -0.2595 C   0  0
    7.3579   -4.1245    0.2901 C   0  0
    6.2683   -3.4325    0.6152 C   0  0
    4.9420   -4.0212    0.4234 C   0  0
   -4.0432   -2.3164   -0.1652 H   0  0
   -2.3997   -6.2792    0.2461 H   0  0
   -4.6160   -7.2367    0.2601 H   0  0
   -1.0319   -6.0707    0.1348 H   0  0
   -0.1581   -5.5081    1.5802 H   0  0
    1.3023   -7.0158    0.4536 H   0  0
    0.9845   -6.2591   -1.1263 H   0  0
    2.8158   -3.3372   -0.7099 H   0  0
    1.7263   -4.3230   -1.7152 H   0  0
    1.0142   -2.7665    0.8098 H   0  0
    0.4517   -2.4459   -0.8486 H   0  0
    3.4672   -6.8749    0.2155 H   0  0
    3.3435   -6.0992   -1.3821 H   0  0
   -7.4735   -5.4619    0.8979 H   0  0
   -7.1791   -3.4228   -0.9873 H   0  0
    5.9280   -7.0081   -0.8565 H   0  0
    8.1187   -6.0436   -0.5197 H   0  0
    8.3458   -3.6866    0.4334 H   0  0
    6.3638   -2.4267    1.0244 H   0  0
    4.0532   -3.4550    0.7019 H   0  0
  1  2  2  0
  2  3  1  0
  3  4  2  0
  4  5  1  0
  5  6  2  0
  1  6  1  0
  4  7  1  0
  7  8  1  0
  9 10  1  0
 10 11  1  0
 11 12  1  0
 12 13  1  0
  8  9  1  0
  8 13  1  0
 11 14  1  0
 14 15  1  0
  1 16  1  0
  7 17  2  0
  2 18  1  0
 19 20  2  0
 20 21  1  0
 21 22  2  0
 22 23  1  0
 15 19  1  0
 15 23  2  0
  3 24  1  0
  5 25  1  0
  6 26  1  0
  9 27  1  0
  9 28  1  0
 10 29  1  0
 10 30  1  0
 12 31  1  0
 12 32  1  0
 13 33  1  0
 13 34  1  0
 14 35  1  0
 14 36  1  0
 16 37  1  0
 18 38  1  0
 19 39  1  0
 20 40  1  0
 21 41  1  0
 22 42  1  0
 23 43  1  0
M  END
> <Name>
MTV2022_31

> <Clean Energy>
13.4044

$$$$
MTV2022_32
  SciTegic12132405553D

 46 47  0  0  0  0            999 V2000
   -5.5923   -5.2840   -0.0140 C   0  0
   -5.4978   -3.9564    0.0171 C   0  0
   -4.1814   -3.3172    0.0259 C   0  0
   -3.0754   -4.0597    0.0019 C   0  0
   -3.1770   -5.5225   -0.0329 C   0  0
   -4.3762   -6.1051   -0.0398 C   0  0
   -1.7659   -3.4007    0.0109 C   0  0
   -6.8446   -5.8905   -0.0222 O   0  0
   -6.6499   -3.1770    0.0407 O   0  0
   -0.6312   -4.0980   -0.0343 C   0  0
    0.6424   -3.3676   -0.0183 C   0  0
    1.8706   -4.0420   -0.0856 N   0  0
    0.6312   -2.1342    0.0568 O   0  0
    1.8947   -5.4872   -0.2247 C   0  0
    3.2142   -6.1097    0.2837 C   0  0
    4.3743   -5.3688   -0.2200 N   0  0
    4.3187   -4.0399    0.3960 C   0  0
    3.0919   -3.2564   -0.1120 C   0  0
    5.5993   -6.0618    0.2279 C   0  0
    6.8589   -5.3071   -0.2509 C   0  0
    8.1161   -6.0578    0.2325 C   0  0
    9.3788   -5.3130   -0.2392 C   0  0
   -4.1054   -2.2301    0.0520 H   0  0
   -2.2736   -6.1321   -0.0532 H   0  0
   -4.4534   -7.1921   -0.0646 H   0  0
   -1.7193   -2.3126    0.0559 H   0  0
   -7.3715   -5.6185    0.8444 H   0  0
   -7.2213   -3.3700   -0.8189 H   0  0
   -0.6482   -5.1868   -0.0823 H   0  0
    1.7730   -5.7387   -1.2783 H   0  0
    1.0673   -5.9069    0.3475 H   0  0
    3.2224   -6.0861    1.3735 H   0  0
    3.2755   -7.1428   -0.0583 H   0  0
    4.2502   -4.1497    1.4783 H   0  0
    5.2249   -3.4897    0.1427 H   0  0
    2.9544   -2.3781    0.5187 H   0  0
    3.2808   -2.9414   -1.1383 H   0  0
    5.6043   -6.1117    1.3167 H   0  0
    5.6096   -7.0715   -0.1827 H   0  0
    6.8612   -5.2564   -1.3397 H   0  0
    6.8569   -4.2976    0.1604 H   0  0
    8.1112   -6.1088    1.3213 H   0  0
    8.1159   -7.0671   -0.1791 H   0  0
   10.2653   -5.8462    0.1041 H   0  0
    9.3807   -4.3035    0.1720 H   0  0
    9.3854   -5.2614   -1.3280 H   0  0
  1  2  2  0
  2  3  1  0
  3  4  2  0
  4  5  1  0
  5  6  2  0
  1  6  1  0
  4  7  1  0
  1  8  1  0
  2  9  1  0
  7 10  2  0
 10 11  1  0
 11 12  1  0
 11 13  2  0
 14 15  1  0
 15 16  1  0
 16 17  1  0
 17 18  1  0
 12 14  1  0
 12 18  1  0
 16 19  1  0
 19 20  1  0
 20 21  1  0
 21 22  1  0
  3 23  1  0
  5 24  1  0
  6 25  1  0
  7 26  1  0
  8 27  1  0
  9 28  1  0
 10 29  1  0
 14 30  1  0
 14 31  1  0
 15 32  1  0
 15 33  1  0
 17 34  1  0
 17 35  1  0
 18 36  1  0
 18 37  1  0
 19 38  1  0
 19 39  1  0
 20 40  1  0
 20 41  1  0
 21 42  1  0
 21 43  1  0
 22 44  1  0
 22 45  1  0
 22 46  1  0
M  END
> <Name>
MTV2022_32

> <Clean Energy>
1.83685

$$$$
MTV2022_33
  SciTegic12132405553D

 52 53  0  0  0  0            999 V2000
   -6.0235   -5.2298   -0.0186 C   0  0
   -5.9121   -3.9037    0.0165 C   0  0
   -4.5869   -3.2815    0.0285 C   0  0
   -3.4891   -4.0370    0.0037 C   0  0
   -3.6095   -5.4987   -0.0357 C   0  0
   -4.8168   -6.0660   -0.0454 C   0  0
   -2.1701   -3.3888    0.0172 C   0  0
   -7.2839   -5.8204   -0.0296 O   0  0
   -7.0547   -3.1096    0.0410 O   0  0
   -1.0336   -4.0859   -0.0308 C   0  0
    0.2390   -3.3453   -0.0070 C   0  0
    1.4803   -4.0048   -0.0799 N   0  0
    0.2152   -2.1129    0.0804 O   0  0
    1.5276   -5.4473   -0.2351 C   0  0
    2.8619   -6.0542    0.2590 C   0  0
    4.0127   -5.2900   -0.2383 N   0  0
    3.9371   -3.9711    0.3964 C   0  0
    2.6928   -3.2002   -0.0972 C   0  0
    5.2474   -5.9801    0.2002 C   0  0
    6.5177   -5.2258   -0.2631 C   0  0
    7.7607   -6.0125    0.2118 C   0  0
    9.0552   -5.3033   -0.2345 C   0  0
   10.2714   -6.1221    0.2488 C   0  0
   11.5760   -5.4299   -0.1893 C   0  0
   -4.4976   -2.1955    0.0580 H   0  0
   -2.7141   -6.1199   -0.0569 H   0  0
   -4.9076   -7.1518   -0.0732 H   0  0
   -2.1186   -2.3012    0.0683 H   0  0
   -7.8080   -5.5441    0.8373 H   0  0
   -7.6275   -3.2929   -0.8198 H   0  0
   -1.0467   -5.1744   -0.0863 H   0  0
    1.4038   -5.6891   -1.2907 H   0  0
    0.7108   -5.8870    0.3372 H   0  0
    2.8739   -6.0448    1.3489 H   0  0
    2.9377   -7.0817   -0.0969 H   0  0
    3.8748   -4.0970    1.4773 H   0  0
    4.8329   -3.4021    0.1474 H   0  0
    2.5434   -2.3336    0.5469 H   0  0
    2.8737   -2.8672   -1.1192 H   0  0
    5.2503   -6.0421    1.2884 H   0  0
    5.2595   -6.9851   -0.2216 H   0  0
    6.5240   -5.1514   -1.3506 H   0  0
    6.5289   -4.2256    0.1701 H   0  0
    7.7469   -6.0813    1.2996 H   0  0
    7.7354   -7.0146   -0.2165 H   0  0
    9.0742   -5.2288   -1.3218 H   0  0
    9.0921   -4.3041    0.1994 H   0  0
   10.2487   -6.1955    1.3361 H   0  0
   10.2295   -7.1215   -0.1843 H   0  0
   12.4304   -6.0127    0.1549 H   0  0
   11.6206   -4.4305    0.2434 H   0  0
   11.6014   -5.3562   -1.2765 H   0  0
  1  2  2  0
  2  3  1  0
  3  4  2  0
  4  5  1  0
  5  6  2  0
  1  6  1  0
  4  7  1  0
  1  8  1  0
  2  9  1  0
  7 10  2  0
 10 11  1  0
 11 12  1  0
 11 13  2  0
 14 15  1  0
 15 16  1  0
 16 17  1  0
 17 18  1  0
 12 14  1  0
 12 18  1  0
 16 19  1  0
 19 20  1  0
 20 21  1  0
 21 22  1  0
 22 23  1  0
 23 24  1  0
  3 25  1  0
  5 26  1  0
  6 27  1  0
  7 28  1  0
  8 29  1  0
  9 30  1  0
 10 31  1  0
 14 32  1  0
 14 33  1  0
 15 34  1  0
 15 35  1  0
 17 36  1  0
 17 37  1  0
 18 38  1  0
 18 39  1  0
 19 40  1  0
 19 41  1  0
 20 42  1  0
 20 43  1  0
 21 44  1  0
 21 45  1  0
 22 46  1  0
 22 47  1  0
 23 48  1  0
 23 49  1  0
 24 50  1  0
 24 51  1  0
 24 52  1  0
M  END
> <Name>
MTV2022_33

> <Clean Energy>
1.85529

$$$$
MTV2022_34
  SciTegic12132405553D

 47 49  0  0  0  0            999 V2000
   -6.0674   -5.3460   -0.0522 C   0  0
   -5.9654   -4.0207    0.0118 C   0  0
   -4.6461   -3.3907    0.0441 C   0  0
   -3.5442   -4.1378   -0.0161 C   0  0
   -3.6528   -5.5972   -0.0962 C   0  0
   -4.8556   -6.1726   -0.1175 C   0  0
   -2.2347   -3.4839    0.0330 C   0  0
   -7.3231   -5.9448   -0.0764 O   0  0
   -7.1126   -3.2354    0.0711 O   0  0
   -1.0930   -4.1638   -0.0754 C   0  0
    0.1587   -3.4083    0.0381 C   0  0
    1.4139   -4.0297   -0.0460 N   0  0
    0.1045   -2.2032    0.3047 O   0  0
    1.5240   -5.4289   -0.4227 C   0  0
    2.8474   -6.0778    0.0621 C   0  0
    4.0126   -5.2018   -0.1693 N   0  0
    3.7796   -4.0321    0.6983 C   0  0
    2.5873   -3.2146    0.1749 C   0  0
    5.2352   -5.9738    0.2483 C   0  0
    6.6149   -5.3002    0.0485 C   0  0
    7.8167   -6.0660    0.4096 C   0  0
    9.0300   -5.5374    0.2547 C   0  0
    9.1772   -4.1827   -0.2744 C   0  0
    8.0962   -3.4816   -0.6089 C   0  0
    6.7608   -4.0663   -0.4462 C   0  0
   -4.5637   -2.3063    0.1177 H   0  0
   -2.7528   -6.2106   -0.1382 H   0  0
   -4.9393   -7.2574   -0.1834 H   0  0
   -2.1919   -2.4025    0.1629 H   0  0
   -7.8492   -5.6912    0.7961 H   0  0
   -7.6967   -3.4030   -0.7853 H   0  0
   -1.0901   -5.2410   -0.2421 H   0  0
    1.4776   -5.5019   -1.5093 H   0  0
    0.6877   -5.9743    0.0146 H   0  0
    2.7680   -6.2820    1.1299 H   0  0
    2.9983   -7.0130   -0.4770 H   0  0
    3.5662   -4.3721    1.7117 H   0  0
    4.6712   -3.4052    0.7050 H   0  0
    2.3447   -2.4429    0.9055 H   0  0
    2.8708   -2.7468   -0.7679 H   0  0
    5.1325   -6.1963    1.3104 H   0  0
    5.2421   -6.9043   -0.3194 H   0  0
    7.7143   -7.0755    0.8077 H   0  0
    9.9140   -6.1160    0.5229 H   0  0
   10.1694   -3.7479   -0.3948 H   0  0
    8.2035   -2.4715   -1.0042 H   0  0
    5.8802   -3.4905   -0.7309 H   0  0
  1  2  2  0
  2  3  1  0
  3  4  2  0
  4  5  1  0
  5  6  2  0
  1  6  1  0
  4  7  1  0
  1  8  1  0
  2  9  1  0
  7 10  2  0
 10 11  1  0
 11 12  1  0
 11 13  2  0
 14 15  1  0
 15 16  1  0
 16 17  1  0
 17 18  1  0
 12 14  1  0
 12 18  1  0
 16 19  1  0
 19 20  1  0
 21 22  2  0
 22 23  1  0
 23 24  2  0
 24 25  1  0
 20 21  1  0
 20 25  2  0
  3 26  1  0
  5 27  1  0
  6 28  1  0
  7 29  1  0
  8 30  1  0
  9 31  1  0
 10 32  1  0
 14 33  1  0
 14 34  1  0
 15 35  1  0
 15 36  1  0
 17 37  1  0
 17 38  1  0
 18 39  1  0
 18 40  1  0
 19 41  1  0
 19 42  1  0
 21 43  1  0
 22 44  1  0
 23 45  1  0
 24 46  1  0
 25 47  1  0
M  END
> <Name>
MTV2022_34

> <Clean Energy>
6.31564

$$$$
MTV2020b_1a
  SciTegic12132405553D

 20 20  0  0  0  0            999 V2000
   -1.7920    1.2284   -0.0003 C   0  0
   -3.0681    0.5094   -0.0003 C   0  0
   -3.0821   -0.8226    0.0000 C   0  0
   -1.8212   -1.5692    0.0004 C   0  0
   -0.6608   -0.9155    0.0004 C   0  0
   -0.6458    0.5502    0.0001 C   0  0
    0.6261    1.2691    0.0002 C   0  0
    1.7730    0.5942    0.0005 C   0  0
    3.0423    1.3171    0.0006 C   0  0
    3.0484    2.5532    0.0004 O   0  0
    4.2432    0.6149    0.0009 O   0  0
   -4.2939   -1.5049   -0.0001 O   0  0
   -1.7805    2.3183   -0.0005 H   0  0
   -4.0063    1.0643   -0.0007 H   0  0
   -1.8330   -2.6591    0.0006 H   0  0
    0.2775   -1.4703    0.0007 H   0  0
    0.6357    2.3591    0.0000 H   0  0
    1.7653   -0.4958    0.0007 H   0  0
    4.2958    0.0109    0.8582 H   0  0
   -4.8423   -1.2455    0.8569 H   0  0
  1  2  1  0
  2  3  2  0
  3  4  1  0
  4  5  2  0
  5  6  1  0
  1  6  2  0
  6  7  1  0
  7  8  2  0
  8  9  1  0
  9 10  2  0
  9 11  1  0
  3 12  1  0
  1 13  1  0
  2 14  1  0
  4 15  1  0
  5 16  1  0
  7 17  1  0
  8 18  1  0
 11 19  1  0
 12 20  1  0
M  END
> <Name>
MTV2020b_1a

> <Clean Energy>
-1.28009

$$$$
MTV2020b_1b
  SciTegic12132405553D

 23 23  0  0  0  0            999 V2000
   -7.8989   -1.3167   -0.0002 C   0  0
   -9.1836   -2.0199   -0.0002 C   0  0
   -9.2140   -3.3516    0.0002 C   0  0
   -7.9623   -4.1136    0.0005 C   0  0
   -6.7939   -3.4743    0.0004 C   0  0
   -6.7611   -2.0088    0.0001 C   0  0
  -10.4342   -4.0190    0.0002 O   0  0
   -5.4805   -1.3052    0.0000 C   0  0
   -4.3416   -1.9933    0.0002 C   0  0
   -3.0651   -1.2844    0.0002 C   0  0
   -3.0475   -0.0481    0.0000 O   0  0
   -1.8711   -2.0020    0.0003 O   0  0
   -0.7630   -1.0970    0.0002 C   0  0
   -7.8740   -0.2270   -0.0005 H   0  0
  -10.1149   -1.4535   -0.0004 H   0  0
   -7.9875   -5.2033    0.0007 H   0  0
   -5.8626   -4.0405    0.0007 H   0  0
  -10.9792   -3.7528    0.8573 H   0  0
   -5.4582   -0.2155   -0.0002 H   0  0
   -4.3615   -3.0831    0.0004 H   0  0
    0.1687   -1.6626    0.0003 H   0  0
   -0.8062   -0.4689    0.8900 H   0  0
   -0.8062   -0.4691   -0.8898 H   0  0
  1  2  1  0
  2  3  2  0
  3  4  1  0
  4  5  2  0
  5  6  1  0
  1  6  2  0
  3  7  1  0
  6  8  1  0
  8  9  2  0
  9 10  1  0
 10 11  2  0
 10 12  1  0
 12 13  1  0
  1 14  1  0
  2 15  1  0
  4 16  1  0
  5 17  1  0
  7 18  1  0
  8 19  1  0
  9 20  1  0
 13 21  1  0
 13 22  1  0
 13 23  1  0
M  END
> <Name>
MTV2020b_1b

> <Clean Energy>
-1.4807

$$$$
MTV2020b_1c
  SciTegic12132405553D

 26 26  0  0  0  0            999 V2000
   -8.0829   -1.3206   -0.0002 C   0  0
   -9.3724   -2.0147   -0.0002 C   0  0
   -9.4120   -3.3461    0.0002 C   0  0
   -8.1655   -4.1169    0.0005 C   0  0
   -6.9925   -3.4856    0.0004 C   0  0
   -6.9498   -2.0203    0.0001 C   0  0
  -10.6369   -4.0048    0.0002 O   0  0
   -5.6650   -1.3242    0.0000 C   0  0
   -4.5285   -2.0164    0.0002 C   0  0
   -3.2509   -1.3095    0.0001 C   0  0
   -3.2320   -0.0732    0.0000 O   0  0
   -2.0578   -2.0270    0.0002 O   0  0
   -0.9518   -1.1200    0.0001 C   0  0
    0.3653   -1.9160    0.0000 C   0  0
   -8.0505   -0.2311   -0.0005 H   0  0
  -10.2997   -1.4418   -0.0004 H   0  0
   -8.1982   -5.2064    0.0007 H   0  0
   -6.0651   -4.0583    0.0007 H   0  0
  -11.1801   -3.7348    0.8573 H   0  0
   -5.6375   -0.2346   -0.0002 H   0  0
   -4.5512   -3.1062    0.0004 H   0  0
   -0.9969   -0.4926   -0.8901 H   0  0
   -0.9968   -0.4925    0.8902 H   0  0
    1.2081   -1.2249    0.0000 H   0  0
    0.4109   -2.5439   -0.8898 H   0  0
    0.4110   -2.5438    0.8899 H   0  0
  1  2  1  0
  2  3  2  0
  3  4  1  0
  4  5  2  0
  5  6  1  0
  1  6  2  0
  3  7  1  0
  6  8  1  0
  8  9  2  0
  9 10  1  0
 10 11  2  0
 10 12  1  0
 12 13  1  0
 13 14  1  0
  1 15  1  0
  2 16  1  0
  4 17  1  0
  5 18  1  0
  7 19  1  0
  8 20  1  0
  9 21  1  0
 13 22  1  0
 13 23  1  0
 14 24  1  0
 14 25  1  0
 14 26  1  0
M  END
> <Name>
MTV2020b_1c

> <Clean Energy>
-1.69392

$$$$
MTV2020b_1d
  SciTegic12132405553D

 29 29  0  0  0  0            999 V2000
   -8.2756   -1.3345   -0.0002 C   0  0
   -9.5701   -2.0199   -0.0001 C   0  0
   -9.6189   -3.3511    0.0002 C   0  0
   -8.3780   -4.1303    0.0005 C   0  0
   -7.2008   -3.5072    0.0004 C   0  0
   -7.1475   -2.0423    0.0001 C   0  0
  -10.8483   -4.0016    0.0002 O   0  0
   -5.8569   -1.3567    0.0000 C   0  0
   -4.7279   -2.0610    0.0002 C   0  0
   -3.4410   -1.3712    0.0001 C   0  0
   -3.4044   -0.1353   -0.0001 O   0  0
   -2.2588   -2.1061    0.0001 O   0  0
   -1.1393   -1.2170   -0.0001 C   0  0
    0.1642   -2.0344   -0.0002 C   0  0
    1.3698   -1.0769   -0.0004 C   0  0
   -8.2356   -0.2452   -0.0005 H   0  0
  -10.4935   -1.4407   -0.0004 H   0  0
   -8.4182   -5.2196    0.0008 H   0  0
   -6.2774   -4.0864    0.0007 H   0  0
  -11.3896   -3.7278    0.8573 H   0  0
   -5.8191   -0.2674   -0.0002 H   0  0
   -4.7637   -3.1505    0.0004 H   0  0
   -1.1744   -0.5889   -0.8902 H   0  0
   -1.1742   -0.5888    0.8901 H   0  0
    0.1992   -2.6624    0.8900 H   0  0
    0.1990   -2.6625   -0.8903 H   0  0
    2.2937   -1.6552   -0.0005 H   0  0
    1.3353   -0.4483    0.8894 H   0  0
    1.3351   -0.4484   -0.8903 H   0  0
  1  2  1  0
  2  3  2  0
  3  4  1  0
  4  5  2  0
  5  6  1  0
  1  6  2  0
  3  7  1  0
  6  8  1  0
  8  9  2  0
  9 10  1  0
 10 11  2  0
 10 12  1  0
 12 13  1  0
 13 14  1  0
 14 15  1  0
  1 16  1  0
  2 17  1  0
  4 18  1  0
  5 19  1  0
  7 20  1  0
  8 21  1  0
  9 22  1  0
 13 23  1  0
 13 24  1  0
 14 25  1  0
 14 26  1  0
 15 27  1  0
 15 28  1  0
 15 29  1  0
M  END
> <Name>
MTV2020b_1d

> <Clean Energy>
-1.8313

$$$$
MTV2020b_1e
  SciTegic12132405553D

 29 29  0  0  0  0            999 V2000
   -2.2812    1.1169   -0.1602 C   0  0
   -3.5660    0.4217   -0.0702 C   0  0
   -3.5976   -0.8999    0.0920 C   0  0
   -2.3458   -1.6578    0.1832 C   0  0
   -1.1761   -1.0245    0.1039 C   0  0
   -1.1436    0.4303   -0.0770 C   0  0
   -4.8189   -1.5600    0.1746 O   0  0
    0.1343    1.1325   -0.1761 C   0  0
    1.2835    0.4725   -0.0579 C   0  0
    2.5419    1.2034   -0.1815 C   0  0
    3.7649    0.5171   -0.0291 O   0  0
    2.5104    2.4099   -0.4543 O   0  0
    4.9200    1.3773   -0.1778 C   0  0
    6.1904    0.5086   -0.1605 C   0  0
    5.0143    2.3922    0.9916 C   0  0
   -2.2556    2.1981   -0.2955 H   0  0
   -4.4966    0.9854   -0.1359 H   0  0
   -2.3720   -2.7394    0.3160 H   0  0
   -0.2450   -1.5869    0.1735 H   0  0
   -5.3623   -1.1906    0.9937 H   0  0
    0.1461    2.2087   -0.3488 H   0  0
    1.2857   -0.6014    0.1291 H   0  0
    4.8568    1.9144   -1.1242 H   0  0
    7.0680    1.1453   -0.2718 H   0  0
    6.1538   -0.2059   -0.9828 H   0  0
    6.2502   -0.0296    0.7855 H   0  0
    5.8908    3.0253    0.8542 H   0  0
    5.1004    1.8531    1.9351 H   0  0
    4.1179    3.0122    1.0085 H   0  0
  1  2  1  0
  2  3  2  0
  3  4  1  0
  4  5  2  0
  5  6  1  0
  1  6  2  0
  3  7  1  0
  6  8  1  0
  8  9  2  0
  9 10  1  0
 10 11  1  0
 10 12  2  0
 11 13  1  0
 13 14  1  0
 13 15  1  0
  1 16  1  0
  2 17  1  0
  4 18  1  0
  5 19  1  0
  7 20  1  0
  8 21  1  0
  9 22  1  0
 13 23  1  0
 14 24  1  0
 14 25  1  0
 14 26  1  0
 15 27  1  0
 15 28  1  0
 15 29  1  0
M  END
> <Name>
MTV2020b_1e

> <Clean Energy>
-0.246374

$$$$
MTV2020b_1f
  SciTegic12132405553D

 32 32  0  0  0  0            999 V2000
   -2.5355    1.1839   -0.0004 C   0  0
   -3.8340    0.5063   -0.0003 C   0  0
   -3.8911   -0.8244    0.0002 C   0  0
   -2.6546   -1.6113    0.0007 C   0  0
   -1.4737   -0.9954    0.0006 C   0  0
   -1.4111    0.4690    0.0000 C   0  0
   -5.1245   -1.4673    0.0003 O   0  0
   -0.1168    1.1486   -0.0001 C   0  0
    1.0103    0.4401    0.0002 C   0  0
    2.2993    1.1276    0.0000 C   0  0
    3.4806    0.3903    0.0003 O   0  0
    2.3384    2.3631   -0.0003 O   0  0
    4.6021    1.2776    0.0000 C   0  0
    5.9040    0.4579    0.0000 C   0  0
    7.1113    1.4129   -0.0003 C   0  0
    8.4145    0.5927   -0.0003 C   0  0
   -2.4890    2.2729   -0.0008 H   0  0
   -4.7538    1.0912   -0.0006 H   0  0
   -2.7015   -2.7003    0.0011 H   0  0
   -0.5539   -1.5803    0.0009 H   0  0
   -5.6641   -1.1901    0.8574 H   0  0
   -0.0745    2.2378   -0.0005 H   0  0
    0.9715   -0.6492    0.0006 H   0  0
    4.5682    1.9056   -0.8903 H   0  0
    4.5683    1.9060    0.8900 H   0  0
    5.9378   -0.1701    0.8903 H   0  0
    5.9376   -0.1705   -0.8899 H   0  0
    7.0774    2.0408   -0.8906 H   0  0
    7.0776    2.0413    0.8897 H   0  0
    9.2697    1.2685   -0.0006 H   0  0
    8.4486   -0.0360   -0.8900 H   0  0
    8.4489   -0.0356    0.8897 H   0  0
  1  2  1  0
  2  3  2  0
  3  4  1  0
  4  5  2  0
  5  6  1  0
  1  6  2  0
  3  7  1  0
  6  8  1  0
  8  9  2  0
  9 10  1  0
 10 11  1  0
 10 12  2  0
 11 13  1  0
 13 14  1  0
 14 15  1  0
 15 16  1  0
  1 17  1  0
  2 18  1  0
  4 19  1  0
  5 20  1  0
  7 21  1  0
  8 22  1  0
  9 23  1  0
 13 24  1  0
 13 25  1  0
 14 26  1  0
 14 27  1  0
 15 28  1  0
 15 29  1  0
 16 30  1  0
 16 31  1  0
 16 32  1  0
M  END
> <Name>
MTV2020b_1f

> <Clean Energy>
-1.92764

$$$$
MTV2020b_1g
  SciTegic12132405553D

 33 33  0  0  0  0            999 V2000
   -2.5424    1.1550   -0.0004 C   0  0
   -3.8327    0.4651   -0.0003 C   0  0
   -3.8757   -0.8657    0.0002 C   0  0
   -2.6297   -1.6400    0.0007 C   0  0
   -1.4548   -1.0116    0.0005 C   0  0
   -1.4094    0.4535    0.0000 C   0  0
   -5.1029   -1.5206    0.0003 O   0  0
   -0.1275    1.1561   -0.0001 C   0  0
    1.0229    0.4848    0.0002 C   0  0
    2.2769    1.2361    0.0000 C   0  0
    3.4464    0.6029    0.0002 N   0  0
    2.2493    2.4708   -0.0003 O   0  0
    4.6577    1.3736    0.0000 C   0  0
    5.8804    0.4411    0.0000 C   0  0
    7.1631    1.2949   -0.0003 C   0  0
    8.3974    0.3754   -0.0004 C   0  0
   -2.5079    2.2445   -0.0008 H   0  0
   -4.7585    1.0404   -0.0006 H   0  0
   -2.6651   -2.7294    0.0010 H   0  0
   -0.5286   -1.5862    0.0009 H   0  0
   -5.6452   -1.2487    0.8574 H   0  0
   -0.1129    2.2460   -0.0005 H   0  0
    1.0293   -0.6052    0.0005 H   0  0
    3.4841   -0.4665    0.0005 H   0  0
    4.6843    2.0021   -0.8902 H   0  0
    4.6845    2.0022    0.8901 H   0  0
    5.8603   -0.1875    0.8902 H   0  0
    5.8601   -0.1877   -0.8901 H   0  0
    7.1796    1.9237   -0.8905 H   0  0
    7.1799    1.9239    0.8898 H   0  0
    9.3030    0.9820   -0.0005 H   0  0
    8.3822   -0.2540   -0.8902 H   0  0
    8.3825   -0.2538    0.8896 H   0  0
  1  2  1  0
  2  3  2  0
  3  4  1  0
  4  5  2  0
  5  6  1  0
  1  6  2  0
  3  7  1  0
  6  8  1  0
  8  9  2  0
  9 10  1  0
 10 11  1  0
 10 12  2  0
 11 13  1  0
 13 14  1  0
 14 15  1  0
 15 16  1  0
  1 17  1  0
  2 18  1  0
  4 19  1  0
  5 20  1  0
  7 21  1  0
  8 22  1  0
  9 23  1  0
 11 24  1  0
 13 25  1  0
 13 26  1  0
 14 27  1  0
 14 28  1  0
 15 29  1  0
 15 30  1  0
 16 31  1  0
 16 32  1  0
 16 33  1  0
M  END
> <Name>
MTV2020b_1g

> <Clean Energy>
-1.84983

$$$$
MTV2020b_1h
  SciTegic12132405553D

 22 22  0  0  0  0            999 V2000
   -1.8024    1.2288   -0.0003 C   0  0
   -3.0763    0.5062   -0.0003 C   0  0
   -3.0865   -0.8259    0.0001 C   0  0
   -1.8234   -1.5688    0.0005 C   0  0
   -0.6649   -0.9118    0.0005 C   0  0
   -0.6542    0.5540    0.0001 C   0  0
   -4.2963   -1.5117    0.0001 O   0  0
    0.6155    1.2764    0.0001 C   0  0
    1.7640    0.6044    0.0004 C   0  0
    3.0311    1.3304    0.0005 C   0  0
    3.0342    2.5665    0.0002 O   0  0
    4.3283    0.5758    0.0008 C   0  0
   -1.7940    2.3188   -0.0006 H   0  0
   -4.0161    1.0583   -0.0006 H   0  0
   -1.8320   -2.6588    0.0008 H   0  0
    0.2750   -1.4638    0.0008 H   0  0
   -4.8454   -1.2538    0.8571 H   0  0
    0.6221    2.3664   -0.0001 H   0  0
    1.7590   -0.4856    0.0007 H   0  0
    5.1594    1.2810    0.0007 H   0  0
    4.3846   -0.0514   -0.8890 H   0  0
    4.3844   -0.0510    0.8908 H   0  0
  1  2  1  0
  2  3  2  0
  3  4  1  0
  4  5  2  0
  5  6  1  0
  1  6  2  0
  3  7  1  0
  6  8  1  0
  8  9  2  0
  9 10  1  0
 10 11  2  0
 10 12  1  0
  1 13  1  0
  2 14  1  0
  4 15  1  0
  5 16  1  0
  7 17  1  0
  8 18  1  0
  9 19  1  0
 12 20  1  0
 12 21  1  0
 12 22  1  0
M  END
> <Name>
MTV2020b_1h

> <Clean Energy>
-1.3804

$$$$
MTV2020b_1i
  SciTegic12132405553D

 28 28  0  0  0  0            999 V2000
   -2.1710    1.1964   -0.0002 C   0  0
   -3.4584    0.4983   -0.0002 C   0  0
   -3.4942   -0.8332    0.0002 C   0  0
   -2.2455   -1.6003    0.0005 C   0  0
   -1.0746   -0.9656    0.0005 C   0  0
   -1.0357    0.4995    0.0001 C   0  0
   -4.7171   -1.4956    0.0002 O   0  0
    0.2472    1.1984    0.0000 C   0  0
    1.3840    0.5065    0.0002 C   0  0
    2.6617    1.2123    0.0002 C   0  0
    2.6839    2.4481    0.0000 O   0  0
    3.9465    0.4384    0.0002 C   0  0
    5.1336    1.4184    0.0000 C   0  0
    6.4532    0.6263    0.0000 C   0  0
   -2.1417    2.2860   -0.0005 H   0  0
   -4.3874    1.0685   -0.0004 H   0  0
   -2.2750   -2.6899    0.0008 H   0  0
   -0.1455   -1.5357    0.0007 H   0  0
   -5.2610   -1.2272    0.8573 H   0  0
    0.2733    2.2881   -0.0002 H   0  0
    1.3610   -0.5832    0.0005 H   0  0
    3.9931   -0.1888    0.8905 H   0  0
    3.9930   -0.1892   -0.8898 H   0  0
    5.0866    2.0456   -0.8902 H   0  0
    5.0867    2.0458    0.8900 H   0  0
    7.2940    1.3199   -0.0002 H   0  0
    6.5007   -0.0016   -0.8898 H   0  0
    6.5009   -0.0013    0.8899 H   0  0
  1  2  1  0
  2  3  2  0
  3  4  1  0
  4  5  2  0
  5  6  1  0
  1  6  2  0
  3  7  1  0
  6  8  1  0
  8  9  2  0
  9 10  1  0
 10 11  2  0
 10 12  1  0
 12 13  1  0
 13 14  1  0
  1 15  1  0
  2 16  1  0
  4 17  1  0
  5 18  1  0
  7 19  1  0
  8 20  1  0
  9 21  1  0
 12 22  1  0
 12 23  1  0
 13 24  1  0
 13 25  1  0
 14 26  1  0
 14 27  1  0
 14 28  1  0
M  END
> <Name>
MTV2020b_1i

> <Clean Energy>
-1.78106

$$$$
MTV2020b_2a
  SciTegic12132405553D

 11 11  0  0  0  0            999 V2000
   -1.9441    1.1688   -0.0003 C   0  0
   -3.2224    0.4531   -0.0004 C   0  0
   -3.2401   -0.8790   -0.0002 C   0  0
   -1.9810   -1.6288    0.0002 C   0  0
   -0.8188   -0.9782    0.0003 C   0  0
   -0.7996    0.4875    0.0001 C   0  0
    0.4744    1.2026    0.0002 C   0  0
    1.6190    0.5238    0.0005 C   0  0
    2.8910    1.2420    0.0006 C   0  0
    2.9017    2.4780    0.0004 O   0  0
    4.0892    0.5352    0.0009 O   0  0
  1  2  1  0
  2  3  2  0
  3  4  1  0
  4  5  2  0
  5  6  1  0
  1  6  2  0
  6  7  1  0
  7  8  2  0
  8  9  1  0
  9 10  2  0
  9 11  1  0
M  END
> <Name>
MTV2020b_2a

> <Clean Energy>
-1.15647

$$$$
MTV2020b_2b
  SciTegic12132405553D

 22 22  0  0  0  0            999 V2000
   -2.1077    1.1510   -0.0003 C   0  0
   -3.3953    0.4521   -0.0004 C   0  0
   -3.4304   -0.8796   -0.0001 C   0  0
   -2.1812   -1.6459    0.0003 C   0  0
   -1.0106   -1.0106    0.0003 C   0  0
   -0.9723    0.4548    0.0000 C   0  0
    0.3110    1.1534    0.0001 C   0  0
    1.4469    0.4602    0.0004 C   0  0
    2.7268    1.1628    0.0005 C   0  0
    2.7506    2.3990    0.0003 O   0  0
    3.9171    0.4391    0.0007 O   0  0
    5.0298    1.3382    0.0007 C   0  0
   -2.0790    2.2406   -0.0005 H   0  0
   -4.3246    1.0218   -0.0006 H   0  0
   -4.3885   -1.3994   -0.0002 H   0  0
   -2.2101   -2.7355    0.0005 H   0  0
   -0.0812   -1.5802    0.0006 H   0  0
    0.3379    2.2430    0.0000 H   0  0
    1.4218   -0.6295    0.0006 H   0  0
    5.9586    0.7677    0.0009 H   0  0
    4.9898    1.9665    0.8905 H   0  0
    4.9900    1.9663   -0.8892 H   0  0
  1  2  1  0
  2  3  2  0
  3  4  1  0
  4  5  2  0
  5  6  1  0
  1  6  2  0
  6  7  1  0
  7  8  2  0
  8  9  1  0
  9 10  2  0
  9 11  1  0
 11 12  1  0
  1 13  1  0
  2 14  1  0
  3 15  1  0
  4 16  1  0
  5 17  1  0
  7 18  1  0
  8 19  1  0
 12 20  1  0
 12 21  1  0
 12 22  1  0
M  END
> <Name>
MTV2020b_2b

> <Clean Energy>
-1.3572

$$$$
MTV2020b_2c
  SciTegic12132405553D

 25 25  0  0  0  0            999 V2000
   -2.2962    1.1549   -0.0001 C   0  0
   -3.5877    0.4636   -0.0002 C   0  0
   -3.6306   -0.8679   -0.0001 C   0  0
   -2.3858   -1.6415    0.0002 C   0  0
   -1.2114   -1.0130    0.0003 C   0  0
   -1.1646    0.4521    0.0001 C   0  0
    0.1222    1.1442    0.0002 C   0  0
    1.2557    0.4468    0.0002 C   0  0
    2.5369    1.1468    0.0003 C   0  0
    2.5630    2.3828    0.0004 O   0  0
    3.7257    0.4221    0.0002 O   0  0
    4.8374    1.3218    0.0003 C   0  0
    6.1492    0.5170    0.0001 C   0  0
   -2.2611    2.2443   -0.0002 H   0  0
   -4.5136    1.0387   -0.0004 H   0  0
   -4.5917   -1.3821   -0.0001 H   0  0
   -2.4211   -2.7309    0.0003 H   0  0
   -0.2855   -1.5881    0.0004 H   0  0
    0.1538    2.2337    0.0001 H   0  0
    1.2276   -0.6429    0.0003 H   0  0
    4.7965    1.9497   -0.8898 H   0  0
    4.7966    1.9495    0.8905 H   0  0
    6.9966    1.2025    0.0001 H   0  0
    6.1906   -0.1110   -0.8899 H   0  0
    6.1907   -0.1112    0.8899 H   0  0
  1  2  1  0
  2  3  2  0
  3  4  1  0
  4  5  2  0
  5  6  1  0
  1  6  2  0
  6  7  1  0
  7  8  2  0
  8  9  1  0
  9 10  2  0
  9 11  1  0
 11 12  1  0
 12 13  1  0
  1 14  1  0
  2 15  1  0
  3 16  1  0
  4 17  1  0
  5 18  1  0
  7 19  1  0
  8 20  1  0
 12 21  1  0
 12 22  1  0
 13 23  1  0
 13 24  1  0
 13 25  1  0
M  END
> <Name>
MTV2020b_2c

> <Clean Energy>
-1.57164

$$$$
MTV2020b_2e
  SciTegic12132405553D

 28 28  0  0  0  0            999 V2000
   -2.4417    1.0724    0.1409 C   0  0
   -3.7258    0.3786    0.0270 C   0  0
   -3.7572   -0.9405   -0.1534 C   0  0
   -2.5048   -1.6985   -0.2399 C   0  0
   -1.3366   -1.0676   -0.1389 C   0  0
   -1.3017    0.3832    0.0610 C   0  0
   -0.0253    1.0832    0.1792 C   0  0
    1.1231    0.4182    0.0561 C   0  0
    2.3843    1.1420    0.1934 C   0  0
    2.3599    2.3434    0.4816 O   0  0
    3.6034    0.4499    0.0287 O   0  0
    4.7635    1.3019    0.1855 C   0  0
    6.0288    0.4261    0.1527 C   0  0
    4.8598    2.3302   -0.9721 C   0  0
   -2.4168    2.1517    0.2910 H   0  0
   -4.6567    0.9421    0.0898 H   0  0
   -4.7136   -1.4566   -0.2369 H   0  0
   -2.5303   -2.7782   -0.3868 H   0  0
   -0.4058   -1.6309   -0.2051 H   0  0
   -0.0119    2.1564    0.3693 H   0  0
    1.1212   -0.6531   -0.1447 H   0  0
    4.7061    1.8275    1.1387 H   0  0
    6.9105    1.0561    0.2699 H   0  0
    6.0828   -0.0997   -0.8006 H   0  0
    5.9905   -0.2991    0.9655 H   0  0
    5.7399    2.9572   -0.8295 H   0  0
    3.9665    2.9549   -0.9791 H   0  0
    4.9407    1.8020   -1.9221 H   0  0
  1  2  1  0
  2  3  2  0
  3  4  1  0
  4  5  2  0
  5  6  1  0
  1  6  2  0
  6  7  1  0
  7  8  2  0
  8  9  1  0
  9 10  2  0
  9 11  1  0
 11 12  1  0
 12 13  1  0
 12 14  1  0
  1 15  1  0
  2 16  1  0
  3 17  1  0
  4 18  1  0
  5 19  1  0
  7 20  1  0
  8 21  1  0
 12 22  1  0
 13 23  1  0
 13 24  1  0
 13 25  1  0
 14 26  1  0
 14 27  1  0
 14 28  1  0
M  END
> <Name>
MTV2020b_2e

> <Clean Energy>
-0.134107

$$$$
MTV2020b_2f
  SciTegic12132405553D

 31 31  0  0  0  0            999 V2000
   -2.7019    1.1545   -0.0001 C   0  0
   -4.0023    0.4796   -0.0002 C   0  0
   -4.0622   -0.8513   -0.0001 C   0  0
   -2.8273   -1.6405    0.0002 C   0  0
   -1.6449   -1.0270    0.0003 C   0  0
   -1.5795    0.4376    0.0001 C   0  0
   -0.2832    1.1129    0.0002 C   0  0
    0.8405    0.4001    0.0003 C   0  0
    2.1328    1.0804    0.0003 C   0  0
    2.1785    2.3160    0.0004 O   0  0
    3.3097    0.3368    0.0002 O   0  0
    4.4361    1.2173    0.0002 C   0  0
    5.7328    0.3897   -0.0001 C   0  0
    6.9458    1.3373   -0.0002 C   0  0
    8.2438    0.5093   -0.0006 C   0  0
   -2.6531    2.2434   -0.0002 H   0  0
   -4.9209    1.0664   -0.0004 H   0  0
   -5.0297   -1.3533   -0.0001 H   0  0
   -2.8764   -2.7294    0.0003 H   0  0
   -0.7263   -1.6137    0.0004 H   0  0
   -0.2369    2.2019    0.0001 H   0  0
    0.7965   -0.6891    0.0003 H   0  0
    4.4059    1.8458   -0.8898 H   0  0
    4.4062    1.8455    0.8905 H   0  0
    5.7628   -0.2388    0.8899 H   0  0
    5.7625   -0.2385   -0.8903 H   0  0
    6.9156    1.9658   -0.8902 H   0  0
    6.9160    1.9656    0.8900 H   0  0
    9.1031    1.1798   -0.0006 H   0  0
    8.2741   -0.1194   -0.8906 H   0  0
    8.2744   -0.1197    0.8892 H   0  0
  1  2  1  0
  2  3  2  0
  3  4  1  0
  4  5  2  0
  5  6  1  0
  1  6  2  0
  6  7  1  0
  7  8  2  0
  8  9  1  0
  9 10  2  0
  9 11  1  0
 11 12  1  0
 12 13  1  0
 13 14  1  0
 14 15  1  0
  1 16  1  0
  2 17  1  0
  3 18  1  0
  4 19  1  0
  5 20  1  0
  7 21  1  0
  8 22  1  0
 12 23  1  0
 12 24  1  0
 13 25  1  0
 13 26  1  0
 14 27  1  0
 14 28  1  0
 15 29  1  0
 15 30  1  0
 15 31  1  0
M  END
> <Name>
MTV2020b_2f

> <Clean Energy>
-1.80509

$$$$
MTV2020b_3a
  SciTegic12132405553D

 23 23  0  0  0  0            999 V2000
   -1.6343    1.2436   -0.0003 C   0  0
   -2.9056    0.5165   -0.0004 C   0  0
   -2.9152   -0.8184   -0.0001 C   0  0
   -1.6465   -1.5531    0.0004 C   0  0
   -0.4905   -0.8918    0.0004 C   0  0
   -0.4841    0.5729    0.0001 C   0  0
    0.7831    1.3000    0.0002 C   0  0
    1.9347    0.6329    0.0005 C   0  0
    3.1986    1.3652    0.0006 C   0  0
    3.1955    2.6012    0.0004 O   0  0
    4.4046    0.6719    0.0009 O   0  0
   -4.1265   -1.5343   -0.0002 O   0  0
   -5.2604   -0.6520   -0.0007 C   0  0
   -1.6297    2.3336   -0.0006 H   0  0
   -3.8465    1.0668   -0.0008 H   0  0
   -1.6493   -2.6431    0.0006 H   0  0
    0.4512   -1.4407    0.0008 H   0  0
    0.7853    2.3900   -0.0001 H   0  0
    1.9347   -0.4571    0.0008 H   0  0
    4.4617    0.0683    0.8583 H   0  0
   -6.1785   -1.2395   -0.0007 H   0  0
   -5.2319   -0.0234   -0.8907 H   0  0
   -5.2323   -0.0229    0.8891 H   0  0
  1  2  1  0
  2  3  2  0
  3  4  1  0
  4  5  2  0
  5  6  1  0
  1  6  2  0
  6  7  1  0
  7  8  2  0
  8  9  1  0
  9 10  2  0
  9 11  1  0
  3 12  1  0
 12 13  1  0
  1 14  1  0
  2 15  1  0
  4 16  1  0
  5 17  1  0
  7 18  1  0
  8 19  1  0
 11 20  1  0
 13 21  1  0
 13 22  1  0
 13 23  1  0
M  END
> <Name>
MTV2020b_3a

> <Clean Energy>
-1.02982

$$$$
MTV2020b_3b
  SciTegic12132405553D

 14 14  0  0  0  0            999 V2000
   -1.7941    1.2099   -0.0002 C   0  0
   -3.0735    0.4970   -0.0003 C   0  0
   -3.0979   -0.8378   -0.0002 C   0  0
   -1.8374   -1.5864    0.0001 C   0  0
   -0.6742   -0.9380    0.0002 C   0  0
   -0.6515    0.5265    0.0001 C   0  0
    0.6238    1.2393    0.0002 C   0  0
    1.7676    0.5592    0.0004 C   0  0
    3.0390    1.2771    0.0005 C   0  0
    3.0479    2.5135    0.0004 O   0  0
    4.2380    0.5678    0.0006 O   0  0
    5.3396    1.4805    0.0007 C   0  0
   -4.3170   -1.5402   -0.0003 O   0  0
   -5.4411   -0.6455   -0.0006 C   0  0
  1  2  1  0
  2  3  2  0
  3  4  1  0
  4  5  2  0
  5  6  1  0
  1  6  2  0
  6  7  1  0
  7  8  2  0
  8  9  1  0
  9 10  2  0
  9 11  1  0
 11 12  1  0
  3 13  1  0
 13 14  1  0
M  END
> <Name>
MTV2020b_3b

> <Clean Energy>
-1.23063

$$$$
MTV2020b_3c
  SciTegic12132405553D

 29 29  0  0  0  0            999 V2000
   -1.9761    1.2007   -0.0001 C   0  0
   -3.2601    0.4966   -0.0002 C   0  0
   -3.2934   -0.8380   -0.0001 C   0  0
   -2.0378   -1.5951    0.0001 C   0  0
   -0.8701   -0.9544    0.0002 C   0  0
   -0.8380    0.5100    0.0001 C   0  0
    0.4415    1.2155    0.0002 C   0  0
    1.5826    0.5311    0.0002 C   0  0
    2.8556    1.2460    0.0003 C   0  0
    2.8670    2.4823    0.0004 O   0  0
    4.0529    0.5357    0.0002 O   0  0
    5.1537    1.4487    0.0003 C   0  0
   -4.5174   -1.5320   -0.0003 O   0  0
   -5.6353   -0.6294   -0.0005 C   0  0
    6.4750    0.6598    0.0000 C   0  0
   -1.9521    2.2904   -0.0001 H   0  0
   -4.1910    1.0636   -0.0003 H   0  0
   -2.0601   -2.6849    0.0001 H   0  0
    0.0617   -1.5199    0.0003 H   0  0
    0.4613    2.3053    0.0002 H   0  0
    1.5671   -0.5588    0.0002 H   0  0
    5.1052    2.0761   -0.8898 H   0  0
    5.1053    2.0758    0.8905 H   0  0
   -6.5638   -1.2002   -0.0006 H   0  0
   -5.5956   -0.0011   -0.8904 H   0  0
   -5.5958   -0.0010    0.8894 H   0  0
    7.3141    1.3555    0.0001 H   0  0
    6.5240    0.0324   -0.8899 H   0  0
    6.5242    0.0321    0.8898 H   0  0
  1  2  1  0
  2  3  2  0
  3  4  1  0
  4  5  2  0
  5  6  1  0
  1  6  2  0
  6  7  1  0
  7  8  2  0
  8  9  1  0
  9 10  2  0
  9 11  1  0
 11 12  1  0
  3 13  1  0
 13 14  1  0
 12 15  1  0
  1 16  1  0
  2 17  1  0
  4 18  1  0
  5 19  1  0
  7 20  1  0
  8 21  1  0
 12 22  1  0
 12 23  1  0
 14 24  1  0
 14 25  1  0
 14 26  1  0
 15 27  1  0
 15 28  1  0
 15 29  1  0
M  END
> <Name>
MTV2020b_3c

> <Clean Energy>
-1.44451

$$$$
MTV2020b_4a
  SciTegic12132405553D

 13 13  0  0  0  0            999 V2000
   -1.6632    1.2030   -0.0003 C   0  0
   -2.9394    0.4852   -0.0003 C   0  0
   -2.9550   -0.8466   -0.0001 C   0  0
   -1.6953   -1.5945    0.0004 C   0  0
   -0.5343   -0.9419    0.0004 C   0  0
   -0.5178    0.5237    0.0001 C   0  0
    0.7548    1.2412    0.0002 C   0  0
    1.9008    0.5648    0.0005 C   0  0
    3.1711    1.2860    0.0006 C   0  0
    3.1789    2.5221    0.0004 O   0  0
    4.3709    0.5822    0.0009 O   0  0
   -4.1677   -1.5269   -0.0001 O   0  0
   -4.1358    1.1938   -0.0008 O   0  0
  1  2  1  0
  2  3  2  0
  3  4  1  0
  4  5  2  0
  5  6  1  0
  1  6  2  0
  6  7  1  0
  7  8  2  0
  8  9  1  0
  9 10  2  0
  9 11  1  0
  3 12  1  0
  2 13  1  0
M  END
> <Name>
MTV2020b_4a

> <Clean Energy>
-1.47247

$$$$
MTV2020b_4b
  SciTegic12132405553D

 14 14  0  0  0  0            999 V2000
   -1.8232    1.1761   -0.0001 C   0  0
   -3.1069    0.4715   -0.0003 C   0  0
   -3.1362   -0.8601   -0.0002 C   0  0
   -1.8843   -1.6209    0.0000 C   0  0
   -0.7166   -0.9804    0.0002 C   0  0
   -0.6849    0.4850    0.0001 C   0  0
    0.5951    1.1892    0.0002 C   0  0
    1.7339    0.5007    0.0004 C   0  0
    3.0110    1.2084    0.0005 C   0  0
    3.0300    2.4447    0.0005 O   0  0
    4.2041    0.4892    0.0006 O   0  0
    5.3134    1.3925    0.0007 C   0  0
   -4.3558   -1.5279   -0.0003 O   0  0
   -4.2958    1.1924   -0.0005 O   0  0
  1  2  1  0
  2  3  2  0
  3  4  1  0
  4  5  2  0
  5  6  1  0
  1  6  2  0
  6  7  1  0
  7  8  2  0
  8  9  1  0
  9 10  2  0
  9 11  1  0
 11 12  1  0
  3 13  1  0
  2 14  1  0
M  END
> <Name>
MTV2020b_4b

> <Clean Energy>
-1.67327

$$$$
MTV2020b_5
  SciTegic12132405553D

 24 24  0  0  0  0            999 V2000
   -1.2614    1.2981    0.0002 C   0  0
   -2.5232    0.5382    0.0003 C   0  0
   -2.4571   -0.8176    0.0002 C   0  0
   -1.1426   -1.4755    0.0003 C   0  0
   -0.0197   -0.7655    0.0002 C   0  0
   -0.0818    0.6845    0.0002 C   0  0
    1.1838    1.4947    0.0002 C   0  0
    2.3739    0.5782    0.0001 C   0  0
    3.6047    1.0850    0.0000 C   0  0
   -3.5731   -1.6580    0.0003 O   0  0
   -3.7306    1.3471    0.0002 O   0  0
   -5.0065    0.6900    0.0003 C   0  0
   -1.2954    2.3875    0.0000 H   0  0
   -1.0883   -2.5641    0.0005 H   0  0
    0.9460   -1.2709    0.0002 H   0  0
    1.2111    2.1232   -0.8900 H   0  0
    1.2112    2.1232    0.8903 H   0  0
    2.2296   -0.5022    0.0002 H   0  0
    3.7493    2.1653    0.0000 H   0  0
    4.4681    0.4196    0.0000 H   0  0
   -4.1507   -1.4736    0.8577 H   0  0
   -5.8004    1.4369    0.0001 H   0  0
   -5.0949    0.0669    0.8902 H   0  0
   -5.0948    0.0666   -0.8895 H   0  0
  1  2  1  0
  2  3  2  0
  3  4  1  0
  4  5  2  0
  5  6  1  0
  1  6  2  0
  6  7  1  0
  8  9  2  0
  3 10  1  0
  2 11  1  0
 11 12  1  0
  7  8  1  0
  1 13  1  0
  4 14  1  0
  5 15  1  0
  7 16  1  0
  7 17  1  0
  8 18  1  0
  9 19  1  0
  9 20  1  0
 10 21  1  0
 12 22  1  0
 12 23  1  0
 12 24  1  0
M  END
> <Name>
MTV2020b_5

> <Clean Energy>
5.49141

$$$$
MTV2020b_6
  SciTegic12132405553D

 24 24  0  0  0  0            999 V2000
   -1.2128    1.2375    0.0003 C   0  0
   -2.5057    0.5317    0.0003 C   0  0
   -2.4967   -0.8256    0.0002 C   0  0
   -1.2111   -1.5384    0.0001 C   0  0
   -0.0593   -0.8764    0.0001 C   0  0
   -0.0608    0.5738    0.0002 C   0  0
    1.2043    1.3058    0.0002 C   0  0
    2.3572    0.6402    0.0001 C   0  0
   -3.6472   -1.6182    0.0002 O   0  0
   -3.6780    1.3909    0.0004 O   0  0
   -4.9805    0.7881    0.0004 C   0  0
    3.6569    1.3899    0.0001 C   0  0
   -1.2003    2.3274    0.0003 H   0  0
   -1.2026   -2.6284    0.0001 H   0  0
    0.8844   -1.4218    0.0000 H   0  0
    1.2038    2.3958    0.0003 H   0  0
    2.3570   -0.4498    0.0001 H   0  0
   -4.2166   -1.4096    0.8575 H   0  0
   -5.7422    1.5678    0.0004 H   0  0
   -5.0949    0.1691    0.8902 H   0  0
   -5.0950    0.1691   -0.8895 H   0  0
    4.4854    0.6816    0.0001 H   0  0
    3.7154    2.0166    0.8901 H   0  0
    3.7154    2.0167   -0.8897 H   0  0
  1  2  1  0
  2  3  2  0
  3  4  1  0
  4  5  2  0
  5  6  1  0
  1  6  2  0
  6  7  1  0
  3  9  1  0
  2 10  1  0
 10 11  1  0
  7  8  2  0
  8 12  1  0
  1 13  1  0
  4 14  1  0
  5 15  1  0
  7 16  1  0
  8 17  1  0
  9 18  1  0
 11 19  1  0
 11 20  1  0
 11 21  1  0
 12 22  1  0
 12 23  1  0
 12 24  1  0
M  END
> <Name>
MTV2020b_6

> <Clean Energy>
5.4422

$$$$
MTV2020b_7
  SciTegic12132405553D

 20 20  0  0  0  0            999 V2000
   -1.6943    1.3349   -0.0003 C   0  0
   -2.9650    0.6108   -0.0004 C   0  0
   -2.9779   -0.7192   -0.0002 C   0  0
   -1.7214   -1.4644    0.0003 C   0  0
   -0.5522   -0.8251    0.0004 C   0  0
   -0.5332    0.6801    0.0001 C   0  0
    0.7479    1.5256    0.0002 C   0  0
    2.0270    0.7421    0.0003 C   0  0
    3.1964    1.3774    0.0003 C   0  0
    0.6114   -1.5892    0.0008 O   0  0
   -1.6968    2.4249   -0.0005 H   0  0
   -3.9048    1.1630   -0.0008 H   0  0
   -3.9276   -1.2541   -0.0003 H   0  0
   -1.7404   -2.5542    0.0005 H   0  0
    0.7374    2.1546   -0.8900 H   0  0
    0.7373    2.1546    0.8903 H   0  0
    1.9986   -0.3476    0.0003 H   0  0
    3.2247    2.4670    0.0002 H   0  0
    4.1259    0.8081    0.0003 H   0  0
    0.6325   -2.1950    0.8582 H   0  0
  1  2  1  0
  2  3  2  0
  3  4  1  0
  4  5  2  0
  5  6  1  0
  1  6  2  0
  6  7  1  0
  8  9  2  0
  5 10  1  0
  7  8  1  0
  1 11  1  0
  2 12  1  0
  3 13  1  0
  4 14  1  0
  7 15  1  0
  7 16  1  0
  8 17  1  0
  9 18  1  0
  9 19  1  0
 10 20  1  0
M  END
> <Name>
MTV2020b_7

> <Clean Energy>
1.87948

$$$$
MTV2019_1d
  SciTegic12132405553D

 43 43  0  0  0  0            999 V2000
   -8.8651   -1.3039   -0.0003 C   0  0
  -10.1036   -2.0835   -0.0004 C   0  0
  -10.0527   -3.4145   -0.0001 C   0  0
   -8.7564   -4.0985    0.0002 C   0  0
   -7.6292   -3.3888    0.0002 C   0  0
   -7.6870   -1.9248    0.0000 C   0  0
   -6.4216   -1.1218    0.0000 C   0  0
   -5.2598   -2.0202    0.0003 N   0  0
   -4.0346   -1.2109    0.0003 C   0  0
   -2.7983   -2.1262    0.0005 C   0  0
   -1.5323   -1.2512    0.0005 C   0  0
   -0.2785   -2.1420    0.0007 C   0  0
    0.9726   -1.2459    0.0006 C   0  0
    2.2375   -2.1208    0.0007 C   0  0
  -11.3335   -1.4349   -0.0007 O   0  0
  -11.2302   -4.1541   -0.0002 O   0  0
    3.4820   -1.2145    0.0006 C   0  0
    4.7519   -2.0843    0.0008 C   0  0
   -8.9069   -0.2147   -0.0006 H   0  0
   -8.7148   -5.1877    0.0004 H   0  0
   -6.6648   -3.8967    0.0005 H   0  0
   -6.3923   -0.4935   -0.8902 H   0  0
   -6.3925   -0.4933    0.8900 H   0  0
   -5.2827   -2.6375   -0.8734 H   0  0
   -4.0177   -0.5822   -0.8900 H   0  0
   -4.0179   -0.5819    0.8903 H   0  0
   -2.8086   -2.7551    0.8908 H   0  0
   -2.8084   -2.7554   -0.8895 H   0  0
   -1.5281   -0.6223   -0.8898 H   0  0
   -1.5282   -0.6220    0.8905 H   0  0
   -0.2773   -2.7709    0.8909 H   0  0
   -0.2772   -2.7712   -0.8894 H   0  0
    0.9675   -0.6170   -0.8897 H   0  0
    0.9675   -0.6167    0.8906 H   0  0
    2.2451   -2.7497    0.8910 H   0  0
    2.2452   -2.7499   -0.8893 H   0  0
  -11.4128   -0.8335    0.8564 H   0  0
  -11.7904   -3.9213    0.8569 H   0  0
    3.4730   -0.5856   -0.8896 H   0  0
    3.4729   -0.5853    0.8907 H   0  0
    5.6327   -1.4422    0.0007 H   0  0
    4.7618   -2.7139   -0.8890 H   0  0
    4.7618   -2.7136    0.8908 H   0  0
  1  2  1  0
  2  3  2  0
  3  4  1  0
  4  5  2  0
  5  6  1  0
  1  6  2  0
  6  7  1  0
  7  8  1  0
  8  9  1  0
  9 10  1  0
 10 11  1  0
 11 12  1  0
 12 13  1  0
 13 14  1  0
  2 15  1  0
  3 16  1  0
 14 17  1  0
 17 18  1  0
  1 19  1  0
  4 20  1  0
  5 21  1  0
  7 22  1  0
  7 23  1  0
  8 24  1  0
  9 25  1  0
  9 26  1  0
 10 27  1  0
 10 28  1  0
 11 29  1  0
 11 30  1  0
 12 31  1  0
 12 32  1  0
 13 33  1  0
 13 34  1  0
 14 35  1  0
 14 36  1  0
 15 37  1  0
 16 38  1  0
 17 39  1  0
 17 40  1  0
 18 41  1  0
 18 42  1  0
 18 43  1  0
M  END
> <Name>
MTV2019_1d

> <Clean Energy>
-2.14939188957214

$$$$
MTV2019_1e
  SciTegic12132405553D

 46 46  0  0  0  0            999 V2000
   -8.6958   -1.3558   -0.0004 C   0  0
   -9.9835   -2.0726   -0.0003 C   0  0
   -9.9618   -3.4292   -0.0003 C   0  0
   -8.6655   -4.1295    0.0003 C   0  0
   -7.5180   -3.4563    0.0003 C   0  0
   -7.5342   -2.0052    0.0001 C   0  0
   -6.2443   -1.2235    0.0001 C   0  0
   -5.0731   -2.1222    0.0003 N   0  0
   -3.8461   -1.2969    0.0003 C   0  0
   -2.5816   -2.1866    0.0004 C   0  0
   -1.3253   -1.2817    0.0004 C   0  0
   -0.0421   -2.1424    0.0004 C   0  0
    1.1970   -1.2188    0.0004 C   0  0
    2.4854   -2.0680    0.0004 C   0  0
  -11.1648   -1.2232   -0.0010 O   0  0
  -11.1067   -4.2320   -0.0002 O   0  0
    3.7166   -1.1384    0.0005 C   0  0
    5.0049   -1.9842    0.0006 C   0  0
  -12.4632   -1.8365   -0.0011 C   0  0
   -8.6948   -0.2658   -0.0010 H   0  0
   -8.6463   -5.2194    0.0008 H   0  0
   -6.5691   -3.9928    0.0005 H   0  0
   -6.2097   -0.5954   -0.8901 H   0  0
   -6.2099   -0.5953    0.8902 H   0  0
   -5.0923   -2.7395   -0.8734 H   0  0
   -3.8395   -0.6679   -0.8898 H   0  0
   -3.8396   -0.6678    0.8904 H   0  0
   -2.5781   -2.8156    0.8905 H   0  0
   -2.5780   -2.8157   -0.8898 H   0  0
   -1.3358   -0.6527   -0.8898 H   0  0
   -1.3358   -0.6527    0.8905 H   0  0
   -0.0264   -2.7713    0.8905 H   0  0
   -0.0264   -2.7712   -0.8898 H   0  0
    1.1789   -0.5900   -0.8897 H   0  0
    1.1788   -0.5900    0.8905 H   0  0
    2.5055   -2.6968    0.8906 H   0  0
    2.5056   -2.6967   -0.8897 H   0  0
  -11.6777   -4.0281    0.8571 H   0  0
    3.6960   -0.5096   -0.8896 H   0  0
    3.6959   -0.5096    0.8907 H   0  0
    5.8729   -1.3251    0.0006 H   0  0
    5.0271   -2.6134   -0.8893 H   0  0
    5.0270   -2.6134    0.8904 H   0  0
  -13.2310   -1.0628   -0.0016 H   0  0
  -12.5730   -2.4560    0.8890 H   0  0
  -12.5725   -2.4567   -0.8907 H   0  0
  1  2  1  0
  2  3  2  0
  3  4  1  0
  4  5  2  0
  5  6  1  0
  1  6  2  0
  6  7  1  0
  7  8  1  0
  8  9  1  0
  9 10  1  0
 10 11  1  0
 11 12  1  0
 12 13  1  0
 13 14  1  0
  2 15  1  0
  3 16  1  0
 14 17  1  0
 17 18  1  0
 15 19  1  0
  1 20  1  0
  4 21  1  0
  5 22  1  0
  7 23  1  0
  7 24  1  0
  8 25  1  0
  9 26  1  0
  9 27  1  0
 10 28  1  0
 10 29  1  0
 11 30  1  0
 11 31  1  0
 12 32  1  0
 12 33  1  0
 13 34  1  0
 13 35  1  0
 14 36  1  0
 14 37  1  0
 16 38  1  0
 17 39  1  0
 17 40  1  0
 18 41  1  0
 18 42  1  0
 18 43  1  0
 19 44  1  0
 19 45  1  0
 19 46  1  0
M  END
> <Name>
MTV2019_1e

> <Clean Energy>
4.72644996643066

$$$$
MTV2019_1f
  SciTegic12132405553D

 49 49  0  0  0  0            999 V2000
   -8.5145   -1.3576   -0.1279 C   0  0
   -9.8578   -1.9826   -0.0884 C   0  0
   -9.9034   -3.3606    0.0882 C   0  0
   -8.5942   -4.0641    0.2049 C   0  0
   -7.4193   -3.4469    0.1559 C   0  0
   -7.3794   -2.0318   -0.0136 C   0  0
   -6.0667   -1.2801   -0.0623 C   0  0
   -4.8939   -2.1746    0.0262 N   0  0
   -3.6722   -1.3325   -0.0096 C   0  0
   -2.3876   -2.1956    0.0238 C   0  0
   -1.1439   -1.2668   -0.0050 C   0  0
    0.1546   -2.1086    0.0101 C   0  0
    1.3890   -1.1751   -0.0054 C   0  0
    2.6821   -2.0213    0.0037 C   0  0
  -10.8726   -0.9124   -0.2604 O   0  0
  -10.9940   -4.3643    0.2003 O   0  0
    3.9155   -1.0934   -0.0039 C   0  0
    5.2026   -1.9428    0.0018 C   0  0
  -12.2745   -1.0660   -0.3172 C   0  0
  -12.3850   -4.1156    0.1789 C   0  0
   -8.4568   -0.2771   -0.2591 H   0  0
   -8.6017   -5.1459    0.3379 H   0  0
   -6.4943   -4.0167    0.2443 H   0  0
   -6.0151   -0.7293   -1.0015 H   0  0
   -6.0348   -0.5798    0.7724 H   0  0
   -4.8916   -2.8533   -0.8010 H   0  0
   -3.6771   -0.7400   -0.9245 H   0  0
   -3.6748   -0.6678    0.8543 H   0  0
   -2.3743   -2.7934    0.9352 H   0  0
   -2.3695   -2.8550   -0.8440 H   0  0
   -1.1688   -0.6605   -0.9104 H   0  0
   -1.1608   -0.6161    0.8693 H   0  0
    0.1769   -2.7218    0.9110 H   0  0
    0.1777   -2.7525   -0.8690 H   0  0
    1.3658   -0.5589   -0.9042 H   0  0
    1.3695   -0.5341    0.8759 H   0  0
    2.7019   -2.6416    0.8997 H   0  0
    2.7035   -2.6583   -0.8805 H   0  0
    3.8957   -0.4713   -0.8987 H   0  0
    3.8966   -0.4580    0.8816 H   0  0
    6.0722   -1.2857   -0.0036 H   0  0
    5.2228   -2.5786   -0.8834 H   0  0
    5.2238   -2.5653    0.8963 H   0  0
  -12.7424   -0.0905   -0.4498 H   0  0
  -12.6292   -1.5154    0.6104 H   0  0
  -12.5362   -1.7109   -1.1561 H   0  0
  -12.9246   -5.0570    0.2822 H   0  0
  -12.6558   -3.6440   -0.7658 H   0  0
  -12.6490   -3.4537    1.0037 H   0  0
  1  2  1  0
  2  3  2  0
  3  4  1  0
  4  5  2  0
  5  6  1  0
  1  6  2  0
  6  7  1  0
  7  8  1  0
  8  9  1  0
  9 10  1  0
 10 11  1  0
 11 12  1  0
 12 13  1  0
 13 14  1  0
  2 15  1  0
  3 16  1  0
 14 17  1  0
 17 18  1  0
 15 19  1  0
 16 20  1  0
  1 21  1  0
  4 22  1  0
  5 23  1  0
  7 24  1  0
  7 25  1  0
  8 26  1  0
  9 27  1  0
  9 28  1  0
 10 29  1  0
 10 30  1  0
 11 31  1  0
 11 32  1  0
 12 33  1  0
 12 34  1  0
 13 35  1  0
 13 36  1  0
 14 37  1  0
 14 38  1  0
 17 39  1  0
 17 40  1  0
 18 41  1  0
 18 42  1  0
 18 43  1  0
 19 44  1  0
 19 45  1  0
 19 46  1  0
 20 47  1  0
 20 48  1  0
 20 49  1  0
M  END
> <Name>
MTV2019_1f

> <Clean Energy>
34.3407440185547

$$$$
MTV2019_2d
  SciTegic12132405553D

 41 41  0  0  0  0            999 V2000
   -8.7519   -1.3766    0.0000 C   0  0
  -10.0585   -2.0414    0.0001 C   0  0
  -10.1287   -3.3716    0.0004 C   0  0
   -8.8998   -4.1699    0.0006 C   0  0
   -7.7123   -3.5657    0.0005 C   0  0
   -7.6348   -2.1022    0.0001 C   0  0
   -6.3303   -1.4376    0.0000 C   0  0
   -5.1586   -2.1966    0.0002 O   0  0
   -4.0134   -1.3319    0.0000 C   0  0
   -2.7250   -2.1814    0.0002 C   0  0
   -1.4862   -1.2598    0.0000 C   0  0
   -0.2055   -2.1210    0.0001 C   0  0
    1.0393   -1.2106   -0.0002 C   0  0
    2.3119   -2.0816   -0.0001 C   0  0
    3.5598   -1.1774   -0.0005 C   0  0
    4.8289   -2.0512   -0.0004 C   0  0
  -11.2254   -1.2845   -0.0001 O   0  0
  -11.3690   -4.0019    0.0005 O   0  0
   -6.2699   -0.2025   -0.0003 O   0  0
   -8.6944   -0.2881   -0.0003 H   0  0
   -8.9573   -5.2584    0.0008 H   0  0
   -6.7985   -4.1599    0.0006 H   0  0
   -4.0334   -0.7033   -0.8903 H   0  0
   -4.0334   -0.7029    0.8900 H   0  0
   -2.7072   -2.8100    0.8906 H   0  0
   -2.7072   -2.8105   -0.8897 H   0  0
   -1.5013   -0.6311   -0.8903 H   0  0
   -1.5012   -0.6307    0.8899 H   0  0
   -0.1930   -2.7497    0.8905 H   0  0
   -0.1931   -2.7503   -0.8898 H   0  0
    1.0294   -0.5819   -0.8905 H   0  0
    1.0296   -0.5814    0.8897 H   0  0
    2.3205   -2.7103    0.8902 H   0  0
    2.3203   -2.7109   -0.8900 H   0  0
    3.5521   -0.5486   -0.8908 H   0  0
    3.5523   -0.5481    0.8895 H   0  0
    5.7112   -1.4112   -0.0007 H   0  0
    4.8372   -2.6809   -0.8901 H   0  0
    4.8373   -2.6804    0.8897 H   0  0
  -11.2501   -0.6784    0.8570 H   0  0
  -11.9057   -3.7194    0.8577 H   0  0
  1  2  1  0
  2  3  2  0
  3  4  1  0
  4  5  2  0
  5  6  1  0
  1  6  2  0
  6  7  1  0
  7  8  1  0
  8  9  1  0
  9 10  1  0
 10 11  1  0
 11 12  1  0
 12 13  1  0
 13 14  1  0
 14 15  1  0
 15 16  1  0
  2 17  1  0
  3 18  1  0
  7 19  2  0
  1 20  1  0
  4 21  1  0
  5 22  1  0
  9 23  1  0
  9 24  1  0
 10 25  1  0
 10 26  1  0
 11 27  1  0
 11 28  1  0
 12 29  1  0
 12 30  1  0
 13 31  1  0
 13 32  1  0
 14 33  1  0
 14 34  1  0
 15 35  1  0
 15 36  1  0
 16 37  1  0
 16 38  1  0
 16 39  1  0
 17 40  1  0
 18 41  1  0
M  END
> <Name>
MTV2019_2d

> <Clean Energy>
-2.43214249610901

$$$$
MTV2019_3c
  SciTegic12132405553D

 39 39  0  0  0  0            999 V2000
   -9.1638   -1.3702   -0.0002 C   0  0
  -10.4663   -2.0417   -0.0003 C   0  0
  -10.5299   -3.3724   -0.0001 C   0  0
   -9.2970   -4.1649    0.0002 C   0  0
   -8.1129   -3.5547    0.0003 C   0  0
   -8.0428   -2.0900    0.0001 C   0  0
   -6.7435   -1.4170    0.0002 C   0  0
   -5.6209   -2.1324    0.0004 C   0  0
   -4.3239   -1.4569    0.0005 C   0  0
   -3.0588   -2.2657    0.0006 C   0  0
   -1.8372   -1.3271    0.0003 C   0  0
   -0.5504   -2.1731    0.0003 C   0  0
    0.6822   -1.2507    0.0000 C   0  0
    1.9592   -2.1118   -0.0001 C   0  0
    3.1994   -1.1998   -0.0004 C   0  0
    4.4726   -2.0666   -0.0005 C   0  0
   -4.2702   -0.2220    0.0005 O   0  0
   -9.1121   -0.2814   -0.0003 H   0  0
  -11.3832   -1.4524   -0.0005 H   0  0
  -11.4988   -3.8717   -0.0002 H   0  0
   -9.3491   -5.2537    0.0004 H   0  0
   -7.1960   -4.1442    0.0006 H   0  0
   -6.6948   -0.3281    0.0001 H   0  0
   -5.6685   -3.2214    0.0005 H   0  0
   -3.0317   -2.8941    0.8908 H   0  0
   -3.0318   -2.8944   -0.8895 H   0  0
   -1.8604   -0.6985   -0.8899 H   0  0
   -1.8602   -0.6983    0.8904 H   0  0
   -0.5312   -2.8017    0.8905 H   0  0
   -0.5314   -2.8020   -0.8898 H   0  0
    0.6666   -0.6219   -0.8902 H   0  0
    0.6668   -0.6217    0.8900 H   0  0
    1.9722   -2.7406    0.8901 H   0  0
    1.9719   -2.7409   -0.8902 H   0  0
    3.1879   -0.5710   -0.8907 H   0  0
    3.1882   -0.5707    0.8896 H   0  0
    5.3516   -1.4221   -0.0008 H   0  0
    4.4841   -2.6961   -0.8903 H   0  0
    4.4844   -2.6959    0.8894 H   0  0
  1  2  1  0
  2  3  2  0
  3  4  1  0
  4  5  2  0
  5  6  1  0
  1  6  2  0
  6  7  1  0
  7  8  2  0
  8  9  1  0
  9 10  1  0
 10 11  1  0
 11 12  1  0
 12 13  1  0
 13 14  1  0
 14 15  1  0
 15 16  1  0
  9 17  2  0
  1 18  1  0
  2 19  1  0
  3 20  1  0
  4 21  1  0
  5 22  1  0
  7 23  1  0
  8 24  1  0
 10 25  1  0
 10 26  1  0
 11 27  1  0
 11 28  1  0
 12 29  1  0
 12 30  1  0
 13 31  1  0
 13 32  1  0
 14 33  1  0
 14 34  1  0
 15 35  1  0
 15 36  1  0
 16 37  1  0
 16 38  1  0
 16 39  1  0
M  END
> <Name>
MTV2019_3c

> <Clean Energy>
-2.20634150505066

$$$$
MTV2019_3g
  SciTegic12132405553D

 22 22  0  0  0  0            999 V2000
   -7.7486   -1.2886   -0.0005 C   0  0
   -9.0225   -2.0112   -0.0005 C   0  0
   -9.0326   -3.3433    0.0001 C   0  0
   -7.7696   -4.0862    0.0007 C   0  0
   -6.6111   -3.4292    0.0007 C   0  0
   -6.6004   -1.9634    0.0000 C   0  0
  -10.2425   -4.0291    0.0001 O   0  0
   -5.3307   -1.2410    0.0000 C   0  0
   -4.1822   -1.9130    0.0005 C   0  0
   -2.9151   -1.1869    0.0005 C   0  0
   -1.6179   -1.9415    0.0011 C   0  0
   -2.9121    0.0491    0.0000 O   0  0
   -7.7402   -0.1986   -0.0010 H   0  0
   -9.9623   -1.4591   -0.0009 H   0  0
   -7.7782   -5.1762    0.0012 H   0  0
   -5.6712   -3.9812    0.0011 H   0  0
  -10.7917   -3.7711    0.8571 H   0  0
   -5.3241   -0.1510   -0.0005 H   0  0
   -4.1872   -3.0030    0.0010 H   0  0
   -0.7868   -1.2363    0.0010 H   0  0
   -1.5615   -2.5689   -0.8885 H   0  0
   -1.5618   -2.5681    0.8912 H   0  0
  1  2  1  0
  2  3  2  0
  3  4  1  0
  4  5  2  0
  5  6  1  0
  1  6  2  0
  3  7  1  0
  6  8  1  0
  8  9  2  0
  9 10  1  0
 10 11  1  0
 10 12  2  0
  1 13  1  0
  2 14  1  0
  4 15  1  0
  5 16  1  0
  7 17  1  0
  8 18  1  0
  9 19  1  0
 11 20  1  0
 11 21  1  0
 11 22  1  0
M  END
> <Name>
MTV2019_3g

> <Clean Energy>
-1.38040053844452

$$$$
MTV2019_3h
  SciTegic12132405553D

 28 28  0  0  0  0            999 V2000
   -8.1171   -1.3210   -0.0004 C   0  0
   -9.4046   -2.0191   -0.0003 C   0  0
   -9.4403   -3.3506    0.0002 C   0  0
   -8.1916   -4.1177    0.0007 C   0  0
   -7.0206   -3.4830    0.0006 C   0  0
   -6.9819   -2.0177    0.0000 C   0  0
  -10.6632   -4.0131    0.0003 O   0  0
   -5.6990   -1.3189   -0.0001 C   0  0
   -4.5623   -2.0107    0.0003 C   0  0
   -3.2845   -1.3051    0.0001 C   0  0
   -1.9997   -2.0790    0.0004 C   0  0
   -3.2623   -0.0692   -0.0003 O   0  0
   -0.8126   -1.0991    0.0000 C   0  0
    0.5070   -1.8913    0.0002 C   0  0
   -8.0879   -0.2314   -0.0008 H   0  0
  -10.3336   -1.4490   -0.0007 H   0  0
   -8.2210   -5.2073    0.0011 H   0  0
   -6.0915   -4.0529    0.0010 H   0  0
  -11.2072   -3.7446    0.8573 H   0  0
   -5.6729   -0.2292   -0.0005 H   0  0
   -4.5853   -3.1005    0.0007 H   0  0
   -1.9532   -2.7061    0.8908 H   0  0
   -1.9533   -2.7067   -0.8895 H   0  0
   -0.8595   -0.4721   -0.8904 H   0  0
   -0.8595   -0.4715    0.8899 H   0  0
    1.3478   -1.1977   -0.0001 H   0  0
    0.5545   -2.5193   -0.8895 H   0  0
    0.5545   -2.5187    0.8903 H   0  0
  1  2  1  0
  2  3  2  0
  3  4  1  0
  4  5  2  0
  5  6  1  0
  1  6  2  0
  3  7  1  0
  6  8  1  0
  8  9  2  0
  9 10  1  0
 10 11  1  0
 10 12  2  0
 11 13  1  0
 13 14  1  0
  1 15  1  0
  2 16  1  0
  4 17  1  0
  5 18  1  0
  7 19  1  0
  8 20  1  0
  9 21  1  0
 11 22  1  0
 11 23  1  0
 13 24  1  0
 13 25  1  0
 14 26  1  0
 14 27  1  0
 14 28  1  0
M  END
> <Name>
MTV2019_3h

> <Clean Energy>
-1.78109812736511

$$$$
MTV2019_4b
  SciTegic12132405553D

 45 45  0  0  0  0            999 V2000
   -8.8121   -1.3744    0.0228 C   0  0
  -10.0997   -2.0677   -0.0372 C   0  0
  -10.1457   -3.3996   -0.0433 C   0  0
   -8.8952   -4.1695    0.0078 C   0  0
   -7.7228   -3.5386    0.0625 C   0  0
   -7.6768   -2.0749    0.0708 C   0  0
   -6.3978   -1.3657    0.1454 C   0  0
   -5.2457   -2.0312    0.2369 C   0  0
   -3.9620   -1.2536    0.3314 C   0  0  1  0  0  0
   -2.7358   -2.1028   -0.0551 C   0  0
   -1.4660   -1.2518    0.1598 C   0  0
   -0.2051   -2.0767   -0.1602 C   0  0
    1.0434   -1.2126    0.1113 C   0  0
    2.3180   -2.0311   -0.1678 C   0  0
    3.5576   -1.1644    0.1285 C   0  0
    4.8352   -1.9822   -0.1379 C   0  0
  -11.3764   -4.0826   -0.0958 O   0  0
  -12.4852   -3.1677   -0.1342 C   0  0
   -4.0430   -0.0559   -0.4444 O   0  0
   -8.7802   -0.2849    0.0283 H   0  0
  -11.0246   -1.4924   -0.0771 H   0  0
   -8.9266   -5.2590    0.0009 H   0  0
   -6.7969   -4.1125    0.1012 H   0  0
   -6.3872   -0.2760    0.1258 H   0  0
   -5.2346   -3.1211    0.2431 H   0  0
   -3.8371   -0.9580    1.3731 H   0  0
   -2.6924   -2.9932    0.5721 H   0  0
   -2.8079   -2.3983   -1.1018 H   0  0
   -1.5018   -0.3820   -0.4961 H   0  0
   -1.4258   -0.9231    1.1983 H   0  0
   -0.1793   -2.9644    0.4718 H   0  0
   -0.2209   -2.3764   -1.2081 H   0  0
    1.0260   -0.3380   -0.5391 H   0  0
    1.0411   -0.8915    1.1529 H   0  0
    2.3304   -2.9139    0.4713 H   0  0
    2.3309   -2.3386   -1.2135 H   0  0
    3.5483   -0.2858   -0.5165 H   0  0
    3.5392   -0.8500    1.1720 H   0  0
    5.7107   -1.3679    0.0721 H   0  0
    4.8547   -2.2970   -1.1813 H   0  0
    4.8456   -2.8611    0.5067 H   0  0
  -13.4187   -3.7289   -0.1743 H   0  0
  -12.4042   -2.5348   -1.0179 H   0  0
  -12.4743   -2.5451    0.7604 H   0  0
   -4.2194   -0.3010   -1.4501 H   0  0
  1  2  1  0
  2  3  2  0
  3  4  1  0
  4  5  2  0
  5  6  1  0
  1  6  2  0
  6  7  1  0
  7  8  2  0
  8  9  1  0
  9 10  1  0
 10 11  1  0
 11 12  1  0
 12 13  1  0
 13 14  1  0
 14 15  1  0
 15 16  1  0
  3 17  1  0
 17 18  1  0
  9 19  1  0
  1 20  1  0
  2 21  1  0
  4 22  1  0
  5 23  1  0
  7 24  1  0
  8 25  1  0
  9 26  1  0
 10 27  1  0
 10 28  1  0
 11 29  1  0
 11 30  1  0
 12 31  1  0
 12 32  1  0
 13 33  1  0
 13 34  1  0
 14 35  1  0
 14 36  1  0
 15 37  1  0
 15 38  1  0
 16 39  1  0
 16 40  1  0
 16 41  1  0
 18 42  1  0
 18 43  1  0
 18 44  1  0
 19 45  1  0
M  END
> <Name>
MTV2019_4b

> <Clean Energy>
0.278784900903702

$$$$
MTV2019_4c
  SciTegic12132405553D

 41 41  0  0  0  0            999 V2000
   -9.1605   -1.4003    0.0339 C   0  0
  -10.4477   -2.0915    0.1254 C   0  0
  -10.4908   -3.4224    0.1311 C   0  0
   -9.2474   -4.1960    0.0464 C   0  0
   -8.0762   -3.5678   -0.0365 C   0  0
   -8.0279   -2.1038   -0.0429 C   0  0
   -6.7489   -1.4018   -0.1408 C   0  0
   -5.6049   -2.0788   -0.2460 C   0  0
   -4.3154   -1.3174   -0.3580 C   0  0  2  0  0  0
   -3.1011   -2.1762    0.0414 C   0  0
   -1.8235   -1.3420   -0.1809 C   0  0
   -0.5721   -2.1729    0.1556 C   0  0
    0.6815   -1.3196   -0.1211 C   0  0
    1.9507   -2.1396    0.1724 C   0  0
    3.1931   -1.2798   -0.1301 C   0  0
    4.4677   -2.0975    0.1487 C   0  0
   -4.3811   -0.1099    0.4035 O   0  0
   -9.1264   -0.3108    0.0284 H   0  0
  -11.3715   -1.5165    0.1889 H   0  0
  -11.4494   -3.9367    0.1987 H   0  0
   -9.2821   -5.2855    0.0512 H   0  0
   -7.1527   -4.1434   -0.0996 H   0  0
   -6.7304   -0.3121   -0.1277 H   0  0
   -5.6057   -3.1688   -0.2507 H   0  0
   -4.1895   -1.0385   -1.4042 H   0  0
   -3.1788   -2.4583    1.0914 H   0  0
   -3.0664   -3.0745   -0.5751 H   0  0
   -1.7765   -1.0291   -1.2240 H   0  0
   -1.8533   -0.4622    0.4619 H   0  0
   -0.5949   -2.4597    1.2069 H   0  0
   -0.5496   -3.0685   -0.4654 H   0  0
    0.6847   -1.0111   -1.1666 H   0  0
    0.6659   -0.4371    0.5185 H   0  0
    1.9589   -2.4348    1.2216 H   0  0
    1.9624   -3.0300   -0.4562 H   0  0
    3.1784   -0.9769   -1.1771 H   0  0
    3.1845   -0.3939    0.5050 H   0  0
    5.3453   -1.4877   -0.0658 H   0  0
    4.4776   -2.9836   -0.4861 H   0  0
    4.4837   -2.4007    1.1955 H   0  0
   -5.1640    0.4898    0.0429 H   0  0
  1  2  1  0
  2  3  2  0
  3  4  1  0
  4  5  2  0
  5  6  1  0
  1  6  2  0
  6  7  1  0
  7  8  2  0
  8  9  1  0
  9 10  1  0
 10 11  1  0
 11 12  1  0
 12 13  1  0
 13 14  1  0
 14 15  1  0
 15 16  1  0
  9 17  1  0
  1 18  1  0
  2 19  1  0
  3 20  1  0
  4 21  1  0
  5 22  1  0
  7 23  1  0
  8 24  1  0
  9 25  1  0
 10 26  1  0
 10 27  1  0
 11 28  1  0
 11 29  1  0
 12 30  1  0
 12 31  1  0
 13 32  1  0
 13 33  1  0
 14 34  1  0
 14 35  1  0
 15 36  1  0
 15 37  1  0
 16 38  1  0
 16 39  1  0
 16 40  1  0
 17 41  1  0
M  END
> <Name>
MTV2019_4c

> <Clean Energy>
0.0517717078328133

$$$$
MTV2016_LINS03001
  DSViewer          3D                             0

 40 40  0  0  0  0  0  0  0  0999 V2000
   -1.6910   -1.9876    3.2470 C   0  0
   -2.1523   -3.2624    2.6968 C   0  0
   -2.7291   -3.3037    1.4987 C   0  0
   -2.9034   -2.0752    0.7308 C   0  0
   -2.4848   -0.9136    1.2281 C   0  0
   -1.8482   -0.8586    2.5458 C   0  0
   -3.1649   -4.5164    0.9792 O   0  0
   -1.3963    0.4629    3.0517 C   0  0
   -0.8109    0.6138    4.2416 C   0  0
   -0.3831    1.9408    4.6743 C   0  0
   -0.5632    2.9196    3.9418 O   0  0
    0.2811    2.1143    6.0063 C   0  0
    1.6350    1.3911    5.9755 C   0  0
    2.3139    1.5399    7.3351 C   0  0
    3.6550    0.8097    7.2982 C   0  0
    4.3398    0.9502    8.6563 C   0  0
    5.6800    0.2133    8.6160 C   0  0
    6.3694    0.3519    9.9790 C   0  0
   -1.2334   -1.9724    4.1996 H   0  0
   -2.0256   -4.1556    3.2542 H   0  0
   -3.3635   -2.1079   -0.2239 H   0  0
   -2.6125   -0.0226    0.6677 H   0  0
   -2.9696   -5.2404    1.6248 H   0  0
   -1.5427    1.3180    2.4422 H   0  0
   -0.6493   -0.2167    4.8757 H   0  0
    0.4305    3.1799    6.2300 H   0  0
   -0.3182    1.6210    6.7842 H   0  0
    1.4802    0.3238    5.7653 H   0  0
    2.2712    1.8304    5.1950 H   0  0
    2.4777    2.6046    7.5521 H   0  0
    1.6770    1.0995    8.1147 H   0  0
    3.4868   -0.2542    7.0804 H   0  0
    4.2917    1.2481    6.5174 H   0  0
    4.5095    2.0137    8.8748 H   0  0
    3.7022    0.5120    9.4367 H   0  0
    5.5064   -0.8497    8.3963 H   0  0
    6.3157    0.6515    7.8338 H   0  0
    7.3335   -0.1760    9.9578 H   0  0
    5.7278   -0.0844   10.7579 H   0  0
    6.5374    1.4165   10.1958 H   0  0
  1  2  1  0  0  0
  2  3  2  0  0  0
  3  4  1  0  0  0
  4  5  2  0  0  0
  5  6  1  0  0  0
  1  6  2  0  0  0
  3  7  1  0  0  0
  6  8  1  0  0  0
  9 10  1  0  0  0
 10 11  2  0  0  0
 10 12  1  0  0  0
 12 13  1  0  0  0
 13 14  1  0  0  0
 14 15  1  0  0  0
 15 16  1  0  0  0
 16 17  1  0  0  0
 17 18  1  0  0  0
  8  9  2  0  0  0
  1 19  1  0  0  0
  2 20  1  0  0  0
  4 21  1  0  0  0
  5 22  1  0  0  0
  7 23  1  0  0  0
  8 24  1  0  0  0
  9 25  1  0  0  0
 12 26  1  0  0  0
 12 27  1  0  0  0
 13 28  1  0  0  0
 13 29  1  0  0  0
 14 30  1  0  0  0
 14 31  1  0  0  0
 15 32  1  0  0  0
 15 33  1  0  0  0
 16 34  1  0  0  0
 16 35  1  0  0  0
 17 36  1  0  0  0
 17 37  1  0  0  0
 18 38  1  0  0  0
 18 39  1  0  0  0
 18 40  1  0  0  0
M  END
> <Clean Energy>
-0.310659

$$$$
MTV2016_LINS03002
  SciTegic12132405553D

 42 42  0  0  0  0            999 V2000
   -0.7010   -2.2022   -0.2665 C   0  0
   -1.7675   -3.1492    0.0618 C   0  0
   -2.8434   -2.7395    0.7287 C   0  0
   -2.9614   -1.3428    1.1343 C   0  0
   -1.9935   -0.4788    0.8374 C   0  0
   -0.8057   -0.9207    0.1038 C   0  0
   -3.8541   -3.6412    1.0387 O   0  0
    0.2425    0.0848   -0.2011 C   0  0
    1.3608   -0.2181   -0.8628 C   0  0
    2.3640    0.8528   -1.1308 C   0  0  1  0  0  0
    3.6768    0.2980   -1.1929 O   0  0
    2.0463    1.4659   -2.4968 C   0  0
    3.0611    2.5683   -2.8008 C   0  0
    2.7391    3.1774   -4.1640 C   0  0
    3.7520    4.2794   -4.4696 C   0  0
    3.4293    4.8878   -5.8339 C   0  0
    4.4430    5.9915   -6.1414 C   0  0
    4.1186    6.6015   -7.5110 C   0  0
    0.1472   -2.5432   -0.7970 H   0  0
   -1.6825   -4.1644   -0.2327 H   0  0
   -3.8188   -1.0160    1.6659 H   0  0
   -2.0820    0.5355    1.1335 H   0  0
   -3.6143   -4.5364    0.6922 H   0  0
    0.0963    1.0852    0.1196 H   0  0
    1.5456   -1.2022   -1.2004 H   0  0
    2.2875    1.6459   -0.3740 H   0  0
    3.9007   -0.1115   -0.3216 H   0  0
    2.1044    0.6887   -3.2712 H   0  0
    1.0343    1.8941   -2.4818 H   0  0
    3.0024    3.3461   -2.0269 H   0  0
    4.0742    2.1436   -2.8187 H   0  0
    2.7976    2.3992   -4.9375 H   0  0
    1.7262    3.6029   -4.1469 H   0  0
    3.6935    5.0577   -3.6962 H   0  0
    4.7648    3.8538   -4.4867 H   0  0
    3.4875    4.1087   -6.6067 H   0  0
    2.4161    5.3128   -5.8164 H   0  0
    4.3839    6.7693   -5.3670 H   0  0
    5.4558    5.5646   -6.1575 H   0  0
    4.8430    7.3962   -7.7398 H   0  0
    3.1035    7.0234   -7.4908 H   0  0
    4.1752    5.8189   -8.2811 H   0  0
  1  2  1  0
  2  3  2  0
  3  4  1  0
  4  5  2  0
  5  6  1  0
  1  6  2  0
  3  7  1  0
  6  8  1  0
  9 10  1  0
 10 12  1  0
 12 13  1  0
 13 14  1  0
 14 15  1  0
 15 16  1  0
 16 17  1  0
 17 18  1  0
  8  9  2  0
 10 11  1  0
  1 19  1  0
  2 20  1  0
  4 21  1  0
  5 22  1  0
  7 23  1  0
  8 24  1  0
  9 25  1  0
 10 26  1  0
 11 27  1  0
 12 28  1  0
 12 29  1  0
 13 30  1  0
 13 31  1  0
 14 32  1  0
 14 33  1  0
 15 34  1  0
 15 35  1  0
 16 36  1  0
 16 37  1  0
 17 38  1  0
 17 39  1  0
 18 40  1  0
 18 41  1  0
 18 42  1  0
M  END
> <Name>
MTV2016_LINS03002

> <Clean Energy>
3.52195

$$$$
MTV2016_LINS03003
  SciTegic12132405553D

 42 42  0  0  0  0            999 V2000
    2.4194    0.7625   -4.5160 C   0  0
    1.4236   -0.0762   -5.1827 C   0  0
    0.1296    0.0865   -4.9134 C   0  0
   -0.2955    1.1041   -3.9505 C   0  0
    0.6123    1.8667   -3.3450 C   0  0
    2.0309    1.6871   -3.6420 C   0  0
   -0.8170   -0.7095   -5.5465 O   0  0
    3.0462    2.5417   -2.9631 C   0  0
    3.4264    1.8805   -1.7171 N   0  0
    4.4166    2.7054   -1.0312 C   0  0
    4.8191    2.0296    0.2803 C   0  0
    5.8542    2.9027    0.9900 C   0  0
    6.2601    2.2339    2.3026 C   0  0
    7.2939    3.1114    3.0069 C   0  0
    7.7026    2.4467    4.3208 C   0  0
    8.7375    3.3274    5.0240 C   0  0
    9.1487    2.6617    6.3434 C   0  0
    3.4503    0.6348   -4.7287 H   0  0
    1.7320   -0.8131   -5.8801 H   0  0
   -1.3257    1.2336   -3.7355 H   0  0
    0.3069    2.6041   -2.6470 H   0  0
   -0.3615   -1.3382   -6.1598 H   0  0
    3.9467    2.6369   -3.5857 H   0  0
    2.6133    3.5183   -2.7061 H   0  0
    2.5972    1.7707   -1.1181 H   0  0
    5.3024    2.8234   -1.6706 H   0  0
    3.9851    3.6927   -0.8164 H   0  0
    3.9342    1.9131    0.9215 H   0  0
    5.2528    1.0422    0.0693 H   0  0
    6.7385    3.0196    0.3484 H   0  0
    5.4200    3.8900    1.2001 H   0  0
    5.3766    2.1176    2.9454 H   0  0
    6.6954    1.2468    2.0941 H   0  0
    8.1769    3.2277    2.3634 H   0  0
    6.8580    4.0985    3.2142 H   0  0
    6.8195    2.3306    4.9644 H   0  0
    8.1386    1.4595    4.1137 H   0  0
    9.6193    3.4432    4.3781 H   0  0
    8.2997    4.3145    5.2290 H   0  0
    9.8927    3.2892    6.8547 H   0  0
    9.5824    1.6736    6.1334 H   0  0
    8.2630    2.5449    6.9841 H   0  0
  1  2  1  0
  2  3  2  0
  3  4  1  0
  4  5  2  0
  5  6  1  0
  1  6  2  0
  3  7  1  0
  6  8  1  0
  9 10  1  0
 10 11  1  0
 11 12  1  0
 12 13  1  0
 13 14  1  0
 14 15  1  0
 15 16  1  0
 16 17  1  0
  8  9  1  0
  1 18  1  0
  2 19  1  0
  4 20  1  0
  5 21  1  0
  7 22  1  0
  8 23  1  0
  8 24  1  0
  9 25  1  0
 10 26  1  0
 10 27  1  0
 11 28  1  0
 11 29  1  0
 12 30  1  0
 12 31  1  0
 13 32  1  0
 13 33  1  0
 14 34  1  0
 14 35  1  0
 15 36  1  0
 15 37  1  0
 16 38  1  0
 16 39  1  0
 17 40  1  0
 17 41  1  0
 17 42  1  0
M  END
> <Name>
MTV2016_LINS03003

> <Clean Energy>
2.32193

$$$$
MTV2016_LINS03004
  SciTegic12132405553D

 40 40  0  0  0  0            999 V2000
    1.6492   -2.0989   -0.6697 C   0  0
    1.6712   -3.4642   -1.1956 C   0  0
    0.5431   -4.0340   -1.6151 C   0  0
   -0.7186   -3.2950   -1.5502 C   0  0
   -0.7381   -2.0528   -1.0716 C   0  0
    0.5011   -1.4276   -0.6111 C   0  0
    0.5638   -5.3305   -2.1145 O   0  0
    0.4758   -0.0684   -0.0882 C   0  0
   -0.7273    0.6243   -0.0313 O   0  0
   -0.5093    1.9244    0.5113 C   0  0
   -1.8410    2.6774    0.5686 C   0  0
   -1.6035    4.0713    1.1507 C   0  0
   -2.9345    4.8200    1.2063 C   0  0
   -2.7007    6.2133    1.7874 C   0  0
   -4.0334    6.9592    1.8414 C   0  0
   -3.8025    8.3552    2.4230 C   0  0
   -5.1412    9.1024    2.4764 C   0  0
    1.5214    0.4635    0.3021 O   0  0
    2.5472   -1.6448   -0.3356 H   0  0
    2.5853   -3.9997   -1.2427 H   0  0
   -1.6170   -3.7488   -1.8843 H   0  0
   -1.6518   -1.5165   -1.0242 H   0  0
    1.4892   -5.6791   -2.0871 H   0  0
   -0.0954    1.8358    1.5256 H   0  0
    0.1956    2.4763   -0.1264 H   0  0
   -2.2565    2.7691   -0.4447 H   0  0
   -2.5475    2.1288    1.2070 H   0  0
   -1.1890    3.9816    2.1645 H   0  0
   -0.8980    4.6217    0.5128 H   0  0
   -3.3488    4.9093    0.1925 H   0  0
   -3.6399    4.2693    1.8440 H   0  0
   -2.2868    6.1246    2.8014 H   0  0
   -1.9957    6.7645    1.1498 H   0  0
   -4.4469    7.0468    0.8270 H   0  0
   -4.7380    6.4069    2.4787 H   0  0
   -3.3884    8.2657    3.4372 H   0  0
   -3.0971    8.9058    1.7848 H   0  0
   -4.9843   10.1074    2.8934 H   0  0
   -5.8441    8.5456    3.1125 H   0  0
   -5.5529    9.1856    1.4604 H   0  0
  1  2  1  0
  2  3  2  0
  3  4  1  0
  4  5  2  0
  5  6  1  0
  1  6  2  0
  3  7  1  0
  6  8  1  0
  9 10  1  0
 10 11  1  0
 11 12  1  0
 12 13  1  0
 13 14  1  0
 14 15  1  0
 15 16  1  0
 16 17  1  0
  8  9  1  0
  8 18  2  0
  1 19  1  0
  2 20  1  0
  4 21  1  0
  5 22  1  0
  7 23  1  0
 10 24  1  0
 10 25  1  0
 11 26  1  0
 11 27  1  0
 12 28  1  0
 12 29  1  0
 13 30  1  0
 13 31  1  0
 14 32  1  0
 14 33  1  0
 15 34  1  0
 15 35  1  0
 16 36  1  0
 16 37  1  0
 17 38  1  0
 17 39  1  0
 17 40  1  0
M  END
> <Name>
MTV2016_LINS03004

> <Clean Energy>
-9.16088

$$$$
MTV2016_LINS03005
  SciTegic12132405553D

 41 41  0  0  0  0            999 V2000
    0.4193   -2.3537   -0.5359 C   0  0
   -0.0744   -3.7250   -0.6646 C   0  0
   -1.3810   -3.9719   -0.6036 C   0  0
   -2.3243   -2.8726   -0.4080 C   0  0
   -1.8776   -1.6242   -0.2903 C   0  0
   -0.4353   -1.3479   -0.3571 C   0  0
   -1.8480   -5.2748   -0.7260 O   0  0
    0.0887    0.0247   -0.2295 C   0  0
   -0.7188    1.0694   -0.0449 N   0  0
   -0.1580    2.3759    0.0747 C   0  0
   -1.2630    3.3880    0.3839 C   0  0
   -0.6438    4.7804    0.5073 C   0  0
   -1.7465    5.7913    0.8186 C   0  0
   -1.1263    7.1820    0.9429 C   0  0
   -2.2284    8.1932    1.2560 C   0  0
   -1.6075    9.5859    1.3811 C   0  0
   -2.7138   10.6008    1.6962 C   0  0
    1.3086    0.2124   -0.2943 O   0  0
    1.4607   -2.1607   -0.5846 H   0  0
    0.6095   -4.5230   -0.8065 H   0  0
   -3.3651   -3.0698   -0.3597 H   0  0
   -2.5641   -0.8306   -0.1487 H   0  0
   -1.0823   -5.8886   -0.8516 H   0  0
   -1.6994    0.9529    0.0130 H   0  0
    0.5940    2.3752    0.8759 H   0  0
    0.3425    2.6408   -0.8670 H   0  0
   -2.0033    3.3854   -0.4282 H   0  0
   -1.7542    3.1192    1.3293 H   0  0
    0.0967    4.7829    1.3192 H   0  0
   -0.1532    5.0504   -0.4382 H   0  0
   -2.4876    5.7898    0.0073 H   0  0
   -2.2366    5.5214    1.7643 H   0  0
   -0.3851    7.1829    1.7540 H   0  0
   -0.6364    7.4523   -0.0028 H   0  0
   -2.9700    8.1920    0.4451 H   0  0
   -2.7180    7.9221    2.2018 H   0  0
   -0.8655    9.5846    2.1920 H   0  0
   -1.1177    9.8550    0.4346 H   0  0
   -2.2755   11.6049    1.7877 H   0  0
   -3.2027   10.3251    2.6415 H   0  0
   -3.4553   10.5954    0.8846 H   0  0
  1  2  1  0
  2  3  2  0
  3  4  1  0
  4  5  2  0
  5  6  1  0
  1  6  2  0
  3  7  1  0
  6  8  1  0
  9 10  1  0
 10 11  1  0
 11 12  1  0
 12 13  1  0
 13 14  1  0
 14 15  1  0
 15 16  1  0
 16 17  1  0
  8  9  1  0
  8 18  2  0
  1 19  1  0
  2 20  1  0
  4 21  1  0
  5 22  1  0
  7 23  1  0
  9 24  1  0
 10 25  1  0
 10 26  1  0
 11 27  1  0
 11 28  1  0
 12 29  1  0
 12 30  1  0
 13 31  1  0
 13 32  1  0
 14 33  1  0
 14 34  1  0
 15 35  1  0
 15 36  1  0
 16 37  1  0
 16 38  1  0
 17 39  1  0
 17 40  1  0
 17 41  1  0
M  END
> <Name>
MTV2016_LINS03005

> <Clean Energy>
-3.0802

$$$$
MTV2016_LINS03006
  SciTegic12132405553D

 40 40  0  0  0  0            999 V2000
   -2.6850   -0.1978   -0.2407 C   0  0
   -3.8407   -1.0889   -0.3441 C   0  0
   -3.6674   -2.4090   -0.3210 C   0  0
   -2.3210   -2.9684   -0.1922 C   0  0
   -1.2697   -2.1569   -0.0982 C   0  0
   -1.4605   -0.7079   -0.1236 C   0  0
   -4.7650   -3.2553   -0.4191 O   0  0
   -0.3075    0.1770   -0.0204 C   0  0
   -0.4697    1.4350   -0.0419 N   0  0
    0.6640    2.2967    0.0599 C   0  0
    0.2112    3.7573   -0.0147 C   0  0
    1.4359    4.6664    0.0963 C   0  0
    0.9828    6.1240    0.0219 C   0  0
    2.2059    7.0327    0.1331 C   0  0
    1.7516    8.4900    0.0587 C   0  0
    2.9754    9.4014    0.1701 C   0  0
    2.5186   10.8638    0.0954 C   0  0
   -2.8231    0.8535   -0.2591 H   0  0
   -4.8162   -0.6835   -0.4373 H   0  0
   -2.1829   -4.0197   -0.1739 H   0  0
   -0.2937   -2.5609   -0.0049 H   0  0
   -5.5905   -2.7159   -0.4991 H   0  0
    0.6671   -0.2303    0.0729 H   0  0
    1.1754    2.1115    1.0146 H   0  0
    1.3612    2.0774   -0.7606 H   0  0
   -0.2944    3.9381   -0.9736 H   0  0
   -0.4809    3.9715    0.8117 H   0  0
    1.9419    4.4871    1.0551 H   0  0
    2.1285    4.4539   -0.7299 H   0  0
    0.4770    6.3036   -0.9368 H   0  0
    0.2903    6.3367    0.8481 H   0  0
    2.7117    6.8533    1.0919 H   0  0
    2.8985    6.8204   -0.6931 H   0  0
    1.2455    8.6687   -0.9001 H   0  0
    1.0586    8.7015    0.8849 H   0  0
    3.4807    9.2205    1.1293 H   0  0
    3.6677    9.1877   -0.6565 H   0  0
    3.3926   11.5259    0.1748 H   0  0
    1.8235   11.0711    0.9217 H   0  0
    2.0105   11.0384   -0.8638 H   0  0
  1  2  1  0
  2  3  2  0
  3  4  1  0
  4  5  2  0
  5  6  1  0
  1  6  2  0
  3  7  1  0
  6  8  1  0
  9 10  1  0
 10 11  1  0
 11 12  1  0
 12 13  1  0
 13 14  1  0
 14 15  1  0
 15 16  1  0
 16 17  1  0
  8  9  2  0
  1 18  1  0
  2 19  1  0
  4 20  1  0
  5 21  1  0
  7 22  1  0
  8 23  1  0
 10 24  1  0
 10 25  1  0
 11 26  1  0
 11 27  1  0
 12 28  1  0
 12 29  1  0
 13 30  1  0
 13 31  1  0
 14 32  1  0
 14 33  1  0
 15 34  1  0
 15 35  1  0
 16 36  1  0
 16 37  1  0
 17 38  1  0
 17 39  1  0
 17 40  1  0
M  END
> <Name>
MTV2016_LINS03006

> <Clean Energy>
-4.98716

$$$$
MTV2016_LINS03007
  SciTegic12132405553D

 28 28  0  0  0  0            999 V2000
    1.6312   -2.1108   -0.6896 C   0  0
    1.6296   -3.4724   -1.2251 C   0  0
    0.4898   -4.0241   -1.6372 C   0  0
   -0.7612   -3.2686   -1.5545 C   0  0
   -0.7591   -2.0297   -1.0672 C   0  0
    0.4929   -1.4245   -0.6148 C   0  0
    0.4881   -5.3171   -2.1458 O   0  0
    0.4919   -0.0689   -0.0821 C   0  0
   -0.7005    0.6409   -0.0075 O   0  0
   -0.4562    1.9334    0.5423 C   0  0
   -1.7746    2.7085    0.6209 C   0  0
   -1.5049    4.0952    1.2121 C   0  0
   -2.8257    4.8720    1.2909 C   0  0
    1.5489    0.4453    0.3011 O   0  0
    2.5385   -1.6711   -0.3613 H   0  0
    2.5359   -4.0198   -1.2850 H   0  0
   -1.6688   -3.7079   -1.8827 H   0  0
   -1.6650   -1.4815   -1.0069 H   0  0
    1.4091   -5.6783   -2.1300 H   0  0
   -0.0323    1.8301    1.5511 H   0  0
    0.2506    2.4786   -0.0990 H   0  0
   -2.2000    2.8152   -0.3869 H   0  0
   -2.4829    2.1667    1.2633 H   0  0
   -1.0791    3.9874    2.2198 H   0  0
   -0.7961    4.6361    0.5692 H   0  0
   -2.6402    5.8693    1.7146 H   0  0
   -3.5323    4.3255    1.9318 H   0  0
   -3.2494    4.9740    0.2815 H   0  0
  1  2  1  0
  2  3  2  0
  3  4  1  0
  4  5  2  0
  5  6  1  0
  1  6  2  0
  3  7  1  0
  6  8  1  0
  9 10  1  0
 10 11  1  0
 11 12  1  0
 12 13  1  0
  8  9  1  0
  8 14  2  0
  1 15  1  0
  2 16  1  0
  4 17  1  0
  5 18  1  0
  7 19  1  0
 10 20  1  0
 10 21  1  0
 11 22  1  0
 11 23  1  0
 12 24  1  0
 12 25  1  0
 13 26  1  0
 13 27  1  0
 13 28  1  0
M  END
> <Name>
MTV2016_LINS03007

> <Clean Energy>
-5.32907

$$$$
MTV2016_LINS03008
  SciTegic12132405553D

 30 30  0  0  0  0            999 V2000
    2.4154    0.7613   -4.5140 C   0  0
    1.4228   -0.0788   -5.1835 C   0  0
    0.1268    0.0921   -4.9291 C   0  0
   -0.3035    1.1203   -3.9799 C   0  0
    0.6014    1.8841   -3.3719 C   0  0
    2.0221    1.6953   -3.6524 C   0  0
   -0.8168   -0.7056   -5.5646 O   0  0
    3.0344    2.5502   -2.9694 C   0  0
    3.4155    1.8815   -1.7281 N   0  0
    4.4046    2.7007   -1.0343 C   0  0
    4.8043    2.0103    0.2708 C   0  0
    5.8403    2.8730    0.9959 C   0  0
    6.2407    2.1810    2.3053 C   0  0
    3.4480    0.6267   -4.7143 H   0  0
    1.7350   -0.8235   -5.8709 H   0  0
   -1.3353    1.2563   -3.7768 H   0  0
    0.2923    2.6291   -2.6837 H   0  0
   -0.3579   -1.3419   -6.1673 H   0  0
    3.9353    2.6497   -3.5906 H   0  0
    2.5994    3.5248   -2.7081 H   0  0
    2.5861    1.7657   -1.1306 H   0  0
    5.2913    2.8248   -1.6714 H   0  0
    3.9728    3.6859   -0.8103 H   0  0
    3.9174    1.8872    0.9081 H   0  0
    5.2368    1.0248    0.0488 H   0  0
    6.7264    2.9960    0.3571 H   0  0
    5.4065    3.8586    1.2167 H   0  0
    6.9851    2.7950    2.8322 H   0  0
    6.6705    1.1946    2.0797 H   0  0
    5.3508    2.0572    2.9390 H   0  0
  1  2  1  0
  2  3  2  0
  3  4  1  0
  4  5  2  0
  5  6  1  0
  1  6  2  0
  3  7  1  0
  6  8  1  0
  9 10  1  0
 10 11  1  0
 11 12  1  0
 12 13  1  0
  8  9  1  0
  1 14  1  0
  2 15  1  0
  4 16  1  0
  5 17  1  0
  7 18  1  0
  8 19  1  0
  8 20  1  0
  9 21  1  0
 10 22  1  0
 10 23  1  0
 11 24  1  0
 11 25  1  0
 12 26  1  0
 12 27  1  0
 13 28  1  0
 13 29  1  0
 13 30  1  0
M  END
> <Name>
MTV2016_LINS03008

> <Clean Energy>
6.14428

$$$$
MG2020_5a
  SciTegic12132405553D

 44 47  0  0  0  0            999 V2000
   -2.5760   -3.5601    0.2368 C   0  0
   -3.3557   -4.1683    1.3429 C   0  0
   -2.7930   -4.3365    2.5510 C   0  0
   -1.3868   -3.9391    2.7716 C   0  0
   -0.7350   -3.4073    1.7493 C   0  0
   -1.3249   -3.2007    0.4875 C   0  0
    0.5271   -1.9531    0.5184 C   0  0  2  0  0  0
   -0.4346   -2.5577   -0.3559 O   0  0
    0.6640   -3.0108    1.6514 C   0  0
   -0.1390    2.4170    1.4464 C   0  0
    1.1187    2.7552    0.7749 N   0  0
    1.8278    1.6266    0.1557 C   0  0
    0.8528    0.8480   -0.7738 C   0  0
   -0.3693    0.3814   -0.0365 N   0  0
   -1.0415    1.6061    0.4723 C   0  0
   -0.1123   -0.6233    1.0722 C   0  0
   -3.3527   -4.7675    3.3419 H   0  0
    1.6922    4.1258    0.8314 C   0  0
    2.7682    6.7395    0.9709 C   0  0
    1.4895    6.4561    1.5924 C   0  0
    0.9698    5.2327    1.5356 C   0  0
    2.8760    4.4208    0.2648 C   0  0
    3.4273    5.7753    0.3400 C   0  0
   -3.0143   -3.3896   -0.7131 H   0  0
   -4.3625   -4.4600    1.1830 H   0  0
   -0.9082   -4.1013    3.7035 H   0  0
    1.4949   -1.7202    0.0571 H   0  0
    1.1768   -3.8847    1.2274 H   0  0
    1.1817   -2.6926    2.5668 H   0  0
    0.0910    1.7913    2.3165 H   0  0
   -0.6740    3.3032    1.7777 H   0  0
    2.6917    1.9540   -0.4199 H   0  0
    2.1609    0.9489    0.9514 H   0  0
    0.5268    1.5264   -1.5748 H   0  0
    1.3783   -0.0037   -1.2217 H   0  0
   -1.2765    2.2476   -0.3891 H   0  0
   -1.9739    1.3273    0.9817 H   0  0
   -1.0735   -0.8387    1.5532 H   0  0
    0.5649   -0.2012    1.8212 H   0  0
    3.1771    7.7169    1.0205 H   0  0
    0.9653    7.2283    2.0958 H   0  0
    0.0388    5.0599    1.9983 H   0  0
    3.4329    3.6873   -0.2420 H   0  0
    4.3626    5.9874   -0.1126 H   0  0
  1  2  1  0
  2  3  2  0
  3  4  1  0
  4  5  2  0
  5  6  1  0
  1  6  2  0
  7  8  1  0
  7  9  1  0
  8  6  1  0
  5  9  1  0
 10 11  1  0
 11 12  1  0
 12 13  1  0
 13 14  1  0
 14 15  1  0
 10 15  1  0
  7 16  1  0
 16 14  1  0
  3 17  1  0
 11 18  1  0
 19 20  1  0
 20 21  2  0
 22 23  1  0
 19 23  2  0
 21 18  1  0
 18 22  2  0
  1 24  1  0
  2 25  1  0
  4 26  1  0
  7 27  1  0
  9 28  1  0
  9 29  1  0
 10 30  1  0
 10 31  1  0
 12 32  1  0
 12 33  1  0
 13 34  1  0
 13 35  1  0
 15 36  1  0
 15 37  1  0
 16 38  1  0
 16 39  1  0
 19 40  1  0
 20 41  1  0
 21 42  1  0
 22 43  1  0
 23 44  1  0
M  END
> <Name>
MG2020_5a

> <Clean Energy>
60.1383018493652

$$$$
MG2020_5b
  SciTegic12132405553D

 44 47  0  0  0  0            999 V2000
   -2.5810   -1.3755    0.5844 C   0  0
   -1.2780   -1.3554    1.2944 C   0  0
   -0.4245   -0.3351    1.1077 C   0  0
   -0.7721    0.7559    0.1741 C   0  0
   -1.9437    0.6855   -0.4380 C   0  0
   -2.8578   -0.3647   -0.2275 C   0  0
   -4.0125    1.2771   -1.2065 C   0  0  2  0  0  0
   -4.0251   -0.1307   -0.9361 O   0  0
   -2.5038    1.5580   -1.4612 C   0  0
   -6.4263    3.8487    1.6108 C   0  0
   -7.2867    4.2580    0.4959 N   0  0
   -7.0166    3.5989   -0.7911 C   0  0
   -6.9541    2.0563   -0.5971 C   0  0
   -5.9407    1.6629    0.4364 N   0  0
   -6.3841    2.2965    1.7047 C   0  0
   -4.5018    2.0113    0.0993 C   0  0
    1.0883   -0.3096    1.9408 Cl  0  0
   -8.2394    5.3905    0.6243 C   0  0
  -10.0269    7.5677    0.8919 C   0  0
   -9.2584    7.1253    2.0390 C   0  0
   -8.4140    6.1029    1.9299 C   0  0
   -8.9669    5.8243   -0.4208 C   0  0
   -9.8906    6.9511   -0.2757 C   0  0
   -3.2803   -2.1555    0.7450 H   0  0
   -1.0251   -2.1416    1.9593 H   0  0
   -0.0968    1.5492   -0.0218 H   0  0
   -4.6357    1.5957   -2.0516 H   0  0
   -2.2359    1.0839   -2.4151 H   0  0
   -2.1915    2.6113   -1.4768 H   0  0
   -5.4131    4.2173    1.4134 H   0  0
   -6.7710    4.2561    2.5585 H   0  0
   -7.7735    3.8389   -1.5367 H   0  0
   -6.0389    3.9415   -1.1516 H   0  0
   -7.9392    1.7117   -0.2519 H   0  0
   -6.7275    1.5786   -1.5578 H   0  0
   -7.4001    1.9383    1.9246 H   0  0
   -5.7105    1.9979    2.5194 H   0  0
   -3.8801    1.7176    0.9530 H   0  0
   -4.3964    3.0897   -0.0532 H   0  0
  -10.6974    8.3840    0.9857 H   0  0
   -9.3694    7.6197    2.9705 H   0  0
   -7.8699    5.8069    2.7827 H   0  0
   -8.8871    5.3680   -1.3646 H   0  0
  -10.4543    7.2790   -1.1120 H   0  0
  1  2  1  0
  2  3  2  0
  3  4  1  0
  4  5  2  0
  5  6  1  0
  1  6  2  0
  7  8  1  0
  7  9  1  0
  8  6  1  0
  5  9  1  0
 10 11  1  0
 11 12  1  0
 12 13  1  0
 13 14  1  0
 14 15  1  0
 10 15  1  0
  7 16  1  0
 16 14  1  0
  3 17  1  0
 11 18  1  0
 19 20  1  0
 20 21  2  0
 22 23  1  0
 19 23  2  0
 21 18  1  0
 18 22  2  0
  1 24  1  0
  2 25  1  0
  4 26  1  0
  7 27  1  0
  9 28  1  0
  9 29  1  0
 10 30  1  0
 10 31  1  0
 12 32  1  0
 12 33  1  0
 13 34  1  0
 13 35  1  0
 15 36  1  0
 15 37  1  0
 16 38  1  0
 16 39  1  0
 19 40  1  0
 20 41  1  0
 21 42  1  0
 22 43  1  0
 23 44  1  0
M  END
> <Name>
MG2020_5b

> <Clean Energy>
60.296

$$$$
MG2020_5c
  SciTegic12132405553D

 47 50  0  0  0  0            999 V2000
   -2.4591   -1.0467    0.6323 C   0  0
   -1.0106   -0.9246    0.9252 C   0  0
   -0.2300   -0.1557    0.1494 C   0  0
   -0.8062    0.5486   -1.0113 C   0  0
   -2.1027    0.4012   -1.2322 C   0  0
   -2.9367   -0.3795   -0.4090 C   0  0
   -4.2950    0.9149   -1.6196 C   0  0  2  0  0  0
   -4.2509   -0.2830   -0.8333 O   0  0
   -2.9138    0.8984   -2.3360 C   0  0
   -5.8000    4.6019    0.5160 C   0  0
   -6.9624    4.6515   -0.3733 N   0  0
   -7.0468    3.5671   -1.3605 C   0  0
   -6.9386    2.1987   -0.6275 C   0  0
   -5.6773    2.0978    0.1830 N   0  0
   -5.7307    3.1979    1.1829 C   0  0
   -4.3894    2.1297   -0.6195 C   0  0
    1.2285   -0.0278    0.4496 C   0  0
   -7.9320    5.7787   -0.3355 C   0  0
   -9.7531    7.9434   -0.2500 C   0  0
   -8.6428    7.9031    0.6811 C   0  0
   -7.7779    6.8924    0.6540 C   0  0
   -8.9724    5.8453   -1.1856 C   0  0
   -9.9115    6.9678   -1.1361 C   0  0
   -3.0970   -1.6224    1.2529 H   0  0
   -0.5923   -1.4350    1.7550 H   0  0
   -0.1997    1.1261   -1.6608 H   0  0
   -5.1259    0.9732   -2.3338 H   0  0
   -2.9302    0.0788   -3.0670 H   0  0
   -2.6030    1.8264   -2.8352 H   0  0
   -4.8955    4.7514   -0.0849 H   0  0
   -5.8449    5.3646    1.2884 H   0  0
   -7.9752    3.6013   -1.9272 H   0  0
   -6.1984    3.6571   -2.0501 H   0  0
   -7.7919    2.1099    0.0596 H   0  0
   -6.9878    1.3860   -1.3617 H   0  0
   -6.6379    3.0637    1.7890 H   0  0
   -4.8478    3.1429    1.8343 H   0  0
   -3.5559    2.0979    0.0918 H   0  0
   -4.3202    3.0576   -1.1956 H   0  0
    1.6008    0.9487    0.1079 H   0  0
    1.7599   -0.8075   -0.1141 H   0  0
    1.4128   -0.1934    1.5206 H   0  0
  -10.4386    8.7523   -0.2233 H   0  0
   -8.5187    8.6838    1.3878 H   0  0
   -6.9815    6.8937    1.3442 H   0  0
   -9.1342    5.0960   -1.9047 H   0  0
  -10.7251    7.0021   -1.8155 H   0  0
  1  2  1  0
  2  3  2  0
  3  4  1  0
  4  5  2  0
  5  6  1  0
  1  6  2  0
  7  8  1  0
  7  9  1  0
  8  6  1  0
  5  9  1  0
 10 11  1  0
 11 12  1  0
 12 13  1  0
 13 14  1  0
 14 15  1  0
 10 15  1  0
  7 16  1  0
 16 14  1  0
  3 17  1  0
 11 18  1  0
 19 20  1  0
 20 21  2  0
 22 23  1  0
 19 23  2  0
 21 18  1  0
 18 22  2  0
  1 24  1  0
  2 25  1  0
  4 26  1  0
  7 27  1  0
  9 28  1  0
  9 29  1  0
 10 30  1  0
 10 31  1  0
 12 32  1  0
 12 33  1  0
 13 34  1  0
 13 35  1  0
 15 36  1  0
 15 37  1  0
 16 38  1  0
 16 39  1  0
 17 40  1  0
 17 41  1  0
 17 42  1  0
 19 43  1  0
 20 44  1  0
 21 45  1  0
 22 46  1  0
 23 47  1  0
M  END
> <Name>
MG2020_5c

> <Clean Energy>
71.6808

$$$$
MG2020_5d
  SciTegic12132405553D

 48 51  0  0  0  0            999 V2000
    3.6405    0.5084    1.6790 C   0  0
    3.2033   -0.0176    0.3627 C   0  0
    2.0289    0.3586   -0.1714 C   0  0
    1.1469    1.3060    0.6046 C   0  0
    1.5950    1.7310    1.7745 C   0  0
    2.8388    1.3538    2.3090 C   0  0
    2.1847    3.1494    3.4639 C   0  0  2  0  0  0
    3.0684    2.0219    3.5019 O   0  0
    0.9272    2.5659    2.7623 C   0  0
    3.9985    7.0529    2.1094 C   0  0
    3.6871    7.6430    3.4161 N   0  0
    3.1389    6.7174    4.4201 C   0  0
    4.0129    5.4324    4.5044 C   0  0
    4.1546    4.7633    3.1703 N   0  0
    4.8312    5.7518    2.2929 C   0  0
    2.8614    4.2505    2.5620 C   0  0
    1.6790   -0.1785   -1.4465 O   0  0
    3.7272    9.1114    3.6319 C   0  0
    3.7851   11.9155    4.0038 C   0  0
    4.2088   11.3511    2.7372 C   0  0
    4.1879   10.0343    2.5465 C   0  0
    3.3414    9.6655    4.7953 C   0  0
    3.3743   11.1175    4.9816 C   0  0
    0.4123    0.2594   -1.9637 C   0  0
    4.5810    0.2414    2.0883 H   0  0
    3.8300   -0.6871   -0.1691 H   0  0
    0.1916    1.6079    0.2624 H   0  0
    1.9415    3.5856    4.4409 H   0  0
    0.4578    1.8594    3.4600 H   0  0
    0.1759    3.2872    2.4124 H   0  0
    3.0523    6.7993    1.6177 H   0  0
    4.5491    7.7448    1.4753 H   0  0
    3.0786    7.1786    5.4055 H   0  0
    2.1300    6.4289    4.1003 H   0  0
    5.0177    5.7192    4.8455 H   0  0
    3.5731    4.7429    5.2349 H   0  0
    5.7890    6.0195    2.7620 H   0  0
    5.0230    5.3005    1.3099 H   0  0
    3.0987    3.8372    1.5748 H   0  0
    2.1502    5.0718    2.4331 H   0  0
    3.8031   12.9660    4.1485 H   0  0
    4.5366   11.9910    1.9579 H   0  0
    4.5016    9.6563    1.6138 H   0  0
    3.0041    9.0714    5.5946 H   0  0
    3.0645   11.5354    5.9058 H   0  0
    0.2386   -0.2076   -2.9435 H   0  0
    0.4182    1.3538   -2.0784 H   0  0
   -0.3918   -0.0349   -1.2728 H   0  0
  1  2  1  0
  2  3  2  0
  3  4  1  0
  4  5  2  0
  5  6  1  0
  1  6  2  0
  7  8  1  0
  7  9  1  0
  8  6  1  0
  5  9  1  0
 10 11  1  0
 11 12  1  0
 12 13  1  0
 13 14  1  0
 14 15  1  0
 10 15  1  0
  7 16  1  0
 16 14  1  0
  3 17  1  0
 11 18  1  0
 19 20  1  0
 20 21  2  0
 22 23  1  0
 19 23  2  0
 21 18  1  0
 18 22  2  0
 17 24  1  0
  1 25  1  0
  2 26  1  0
  4 27  1  0
  7 28  1  0
  9 29  1  0
  9 30  1  0
 10 31  1  0
 10 32  1  0
 12 33  1  0
 12 34  1  0
 13 35  1  0
 13 36  1  0
 15 37  1  0
 15 38  1  0
 16 39  1  0
 16 40  1  0
 19 41  1  0
 20 42  1  0
 21 43  1  0
 22 44  1  0
 23 45  1  0
 24 46  1  0
 24 47  1  0
 24 48  1  0
M  END
> <Name>
MG2020_5d

> <Clean Energy>
61.5912

$$$$
MG2020_5e
  SciTegic12132405553D

 56 59  0  0  0  0            999 V2000
   -0.8771   -3.2229   -1.6718 C   0  0
   -1.9816   -4.1952   -1.4965 C   0  0
   -1.9972   -5.0391   -0.4419 C   0  0
   -0.8464   -4.9942    0.5272 C   0  0
    0.1097   -4.1087    0.3041 C   0  0
    0.0943   -3.2129   -0.7736 C   0  0
    1.6059   -2.4225    0.6683 C   0  0  2  0  0  0
    1.1794   -2.3544   -0.6979 O   0  0
    1.3645   -3.9161    1.0183 C   0  0
    0.1429    0.8790    3.3793 C   0  0
    1.5219    1.3349    3.5727 N   0  0
    2.5424    0.6019    2.8106 C   0  0
    2.1399    0.5651    1.3081 C   0  0
    0.7786   -0.0371    1.1083 N   0  0
   -0.1732    0.8275    1.8559 C   0  0
    0.6509   -1.4948    1.5113 C   0  0
   -3.1684   -6.0466   -0.2730 C   0  0
    1.8673    2.3858    4.5663 C   0  0
    2.4968    4.3768    6.4765 C   0  0
    1.1142    3.9932    6.2691 C   0  0
    0.8015    3.0591    5.3747 C   0  0
    3.1401    2.7639    4.7821 C   0  0
    3.4594    3.7950    5.7715 C   0  0
   -3.1204   -6.7681    1.0845 C   0  0
   -3.0841   -7.0861   -1.3975 C   0  0
   -4.5215   -5.3185   -0.4076 C   0  0
   -0.8809   -2.5337   -2.4770 H   0  0
   -2.7676   -4.2120   -2.2067 H   0  0
   -0.7664   -5.6597    1.3430 H   0  0
    2.6462   -2.1234    0.8476 H   0  0
    2.1013   -4.5089    0.4596 H   0  0
    1.4069   -4.1894    2.0815 H   0  0
    0.0518   -0.1324    3.7921 H   0  0
   -0.5737    1.5300    3.8730 H   0  0
    3.5280    1.0528    2.9097 H   0  0
    2.5787   -0.4292    3.1835 H   0  0
    2.1116    1.5985    0.9349 H   0  0
    2.8933    0.0039    0.7427 H   0  0
   -0.0915    1.8483    1.4560 H   0  0
   -1.1974    0.4600    1.7055 H   0  0
   -0.3937   -1.7907    1.3591 H   0  0
    0.8976   -1.6205    2.5699 H   0  0
    2.7391    5.1217    7.1914 H   0  0
    0.3473    4.4595    6.8338 H   0  0
   -0.2130    2.8029    5.2489 H   0  0
    3.9337    2.3277    4.2484 H   0  0
    4.4694    4.0786    5.9273 H   0  0
   -3.9610   -7.4725    1.1491 H   0  0
   -3.1980   -6.0287    1.8945 H   0  0
   -2.1744   -7.3199    1.1773 H   0  0
   -3.9172   -7.7956   -1.2983 H   0  0
   -2.1298   -7.6259   -1.3216 H   0  0
   -3.1459   -6.5826   -2.3719 H   0  0
   -5.3352   -6.0505   -0.3107 H   0  0
   -4.5899   -4.8295   -1.3880 H   0  0
   -4.6092   -4.5645    0.3867 H   0  0
  1  2  1  0
  2  3  2  0
  3  4  1  0
  4  5  2  0
  5  6  1  0
  1  6  2  0
  7  8  1  0
  7  9  1  0
  8  6  1  0
  5  9  1  0
 10 11  1  0
 11 12  1  0
 12 13  1  0
 13 14  1  0
 14 15  1  0
 10 15  1  0
  7 16  1  0
 16 14  1  0
  3 17  1  0
 11 18  1  0
 19 20  1  0
 20 21  2  0
 22 23  1  0
 19 23  2  0
 21 18  1  0
 18 22  2  0
 17 24  1  0
 17 25  1  0
 17 26  1  0
  1 27  1  0
  2 28  1  0
  4 29  1  0
  7 30  1  0
  9 31  1  0
  9 32  1  0
 10 33  1  0
 10 34  1  0
 12 35  1  0
 12 36  1  0
 13 37  1  0
 13 38  1  0
 15 39  1  0
 15 40  1  0
 16 41  1  0
 16 42  1  0
 19 43  1  0
 20 44  1  0
 21 45  1  0
 22 46  1  0
 23 47  1  0
 24 48  1  0
 24 49  1  0
 24 50  1  0
 25 51  1  0
 25 52  1  0
 25 53  1  0
 26 54  1  0
 26 55  1  0
 26 56  1  0
M  END
> <Name>
MG2020_5e

> <Clean Energy>
69.8052

$$$$
MG2020_5f
  SciTegic12132405553D

 54 58  0  0  0  0            999 V2000
   -1.1112   -3.0618   -1.7004 C   0  0
   -2.1367   -4.1120   -1.4817 C   0  0
   -1.9867   -5.0247   -0.4971 C   0  0
   -0.7533   -4.9676    0.3458 C   0  0
    0.1251   -4.0116    0.0959 C   0  0
   -0.0513   -3.0504   -0.9080 C   0  0
    1.5520   -2.2602    0.4300 C   0  0  2  0  0  0
    0.9870   -2.1329   -0.8806 O   0  0
    1.4323   -3.7860    0.6978 C   0  0
    0.1692    0.7746    3.4771 C   0  0
    1.5337    1.2991    3.5785 N   0  0
    2.5177    0.6797    2.6794 C   0  0
    1.9787    0.7092    1.2196 C   0  0
    0.6406    0.0373    1.1041 N   0  0
   -0.2831    0.7959    1.9885 C   0  0
    0.6339   -1.4473    1.4205 C   0  0
   -3.0330   -6.0939   -0.2595 C   0  0
    1.9135    2.2973    4.6129 C   0  0
    2.6108    4.1842    6.6035 C   0  0
    1.2348    3.7440    6.4829 C   0  0
    0.8906    2.8577    5.5524 C   0  0
    3.1811    2.7259    4.7502 C   0  0
    3.5357    3.7027    5.7818 C   0  0
   -2.8812   -6.9941    0.7206 C   0  0
   -3.8958   -8.0244    0.9467 C   0  0
   -4.9807   -8.0786    0.1808 C   0  0
   -5.1645   -7.1094   -0.8900 C   0  0
   -4.2495   -6.1675   -1.1055 C   0  0
   -1.2393   -2.3226   -2.4490 H   0  0
   -2.9908   -4.1258   -2.0995 H   0  0
   -0.5646   -5.6828    1.1007 H   0  0
    2.5863   -1.9078    0.5288 H   0  0
    2.1419   -4.2948    0.0315 H   0  0
    1.5960   -4.1225    1.7307 H   0  0
    0.1712   -0.2634    3.8294 H   0  0
   -0.5331    1.3504    4.0740 H   0  0
    3.4810    1.1850    2.7191 H   0  0
    2.6478   -0.3677    2.9783 H   0  0
    1.8575    1.7596    0.9195 H   0  0
    2.7062    0.2311    0.5531 H   0  0
   -0.2948    1.8419    1.6502 H   0  0
   -1.2952    0.3769    1.9064 H   0  0
   -0.4023   -1.7975    1.3476 H   0  0
    0.9891   -1.6215    2.4407 H   0  0
    2.8786    4.8903    7.3480 H   0  0
    0.4982    4.1304    7.1407 H   0  0
   -0.1181    2.5583    5.4918 H   0  0
    3.9457    2.3686    4.1234 H   0  0
    4.5410    4.0272    5.8744 H   0  0
   -2.0304   -6.9728    1.3427 H   0  0
   -3.7645   -8.7315    1.7262 H   0  0
   -5.7123   -8.8275    0.3498 H   0  0
   -6.0306   -7.1542   -1.5002 H   0  0
   -4.4001   -5.4728   -1.8875 H   0  0
  1  2  1  0
  2  3  2  0
  3  4  1  0
  4  5  2  0
  5  6  1  0
  1  6  2  0
  7  8  1  0
  7  9  1  0
  8  6  1  0
  5  9  1  0
 10 11  1  0
 11 12  1  0
 12 13  1  0
 13 14  1  0
 14 15  1  0
 10 15  1  0
  7 16  1  0
 16 14  1  0
  3 17  1  0
 11 18  1  0
 19 20  1  0
 20 21  2  0
 22 23  1  0
 19 23  2  0
 21 18  1  0
 18 22  2  0
 24 25  1  0
 25 26  2  0
 26 27  1  0
 27 28  2  0
 28 17  1  0
 24 17  2  0
  1 29  1  0
  2 30  1  0
  4 31  1  0
  7 32  1  0
  9 33  1  0
  9 34  1  0
 10 35  1  0
 10 36  1  0
 12 37  1  0
 12 38  1  0
 13 39  1  0
 13 40  1  0
 15 41  1  0
 15 42  1  0
 16 43  1  0
 16 44  1  0
 19 45  1  0
 20 46  1  0
 21 47  1  0
 22 48  1  0
 23 49  1  0
 24 50  1  0
 25 51  1  0
 26 52  1  0
 27 53  1  0
 28 54  1  0
M  END
> <Name>
MG2020_5f

> <Clean Energy>
59.0456

$$$$
MG2020_6a
  SciTegic12132405553D

 37 39  0  0  0  0            999 V2000
   -1.9487   -4.2463    0.4899 C   0  0
   -1.5347   -5.5021    1.1604 C   0  0
   -0.8114   -5.4530    2.2908 C   0  0
   -0.4501   -4.1448    2.8777 C   0  0
   -0.8516   -3.0564    2.2395 C   0  0
   -1.5828   -3.0996    1.0451 C   0  0
   -0.7797   -1.0478    1.2041 C   0  0  2  0  0  0
   -1.7952   -1.8280    0.5789 O   0  0
   -0.7134   -1.6589    2.6248 C   0  0
   -0.1977    3.3221    0.3870 C   0  0
    0.9814    3.0927   -0.4648 N   0  0
    1.3345    1.6626   -0.4914 C   0  0
    0.1300    0.8541   -1.0539 C   0  0
   -1.0968    1.0425   -0.2023 N   0  0
   -1.3938    2.5023   -0.1781 C   0  0
   -0.9852    0.4827    1.2061 C   0  0
    2.1081    3.8549    0.0639 C   0  0
   -2.4945   -4.2647   -0.4188 H   0  0
   -1.8006   -6.4394    0.7415 H   0  0
   -0.5118   -6.3507    2.7692 H   0  0
    0.0851   -4.0800    3.7905 H   0  0
    0.1556   -1.3091    0.6930 H   0  0
    0.1533   -1.3807    3.2399 H   0  0
   -1.6407   -1.3929    3.1503 H   0  0
    0.0279    3.0140    1.4155 H   0  0
   -0.4494    4.3911    0.3787 H   0  0
    2.2088    1.5160   -1.1396 H   0  0
    1.5774    1.3252    0.5248 H   0  0
   -0.0862    1.2242   -2.0657 H   0  0
    0.3910   -0.2090   -1.1123 H   0  0
   -1.5811    2.8405   -1.2069 H   0  0
   -2.2904    2.6779    0.4318 H   0  0
   -1.9224    0.6985    1.7364 H   0  0
   -0.1538    0.9489    1.7452 H   0  0
    2.9890    3.6943   -0.5733 H   0  0
    2.3269    3.5161    1.0863 H   0  0
    1.8521    4.9236    0.0774 H   0  0
  1  2  1  0
  2  3  2  0
  3  4  1  0
  4  5  2  0
  5  6  1  0
  1  6  2  0
  7  8  1  0
  7  9  1  0
  8  6  1  0
  5  9  1  0
 10 11  1  0
 11 12  1  0
 12 13  1  0
 13 14  1  0
 14 15  1  0
 10 15  1  0
  7 16  1  0
 16 14  1  0
 11 17  1  0
  1 18  1  0
  2 19  1  0
  3 20  1  0
  4 21  1  0
  7 22  1  0
  9 23  1  0
  9 24  1  0
 10 25  1  0
 10 26  1  0
 12 27  1  0
 12 28  1  0
 13 29  1  0
 13 30  1  0
 15 31  1  0
 15 32  1  0
 16 33  1  0
 16 34  1  0
 17 35  1  0
 17 36  1  0
 17 37  1  0
M  END
> <Name>
MG2020_6a

> <Clean Energy>
38.915

$$$$
MG2020_7a
  SciTegic12132405553D

 41 43  0  0  0  0            999 V2000
    0.9564   -8.0870   -4.9791 C   0  0
   -0.3006   -8.8634   -4.8525 C   0  0
   -0.7674   -9.1962   -3.6378 C   0  0
   -0.0133   -8.8102   -2.4258 C   0  0
    1.1058   -8.1233   -2.5959 C   0  0
    1.5873   -7.7463   -3.8641 C   0  0
    2.6845   -6.4831   -2.3853 C   0  0  2  0  0  0
    2.7261   -6.9735   -3.7312 O   0  0
    2.0866   -7.6905   -1.6056 C   0  0
    3.4044   -2.8329   -1.4294 C   0  0
    2.4102   -1.7483   -1.5058 N   0  0
    1.0811   -2.2987   -1.8898 C   0  0
    1.2082   -3.0020   -3.2719 C   0  0
    2.1930   -4.1166   -3.2351 N   0  0
    3.5113   -3.5301   -2.8154 C   0  0
    1.6936   -5.2566   -2.3636 C   0  0
    2.3476   -1.0901   -0.1862 C   0  0
    1.4135    0.0897   -0.1719 C   0  0
    1.1335    0.6932    0.9797 C   0  0
    1.3223   -7.7877   -5.9279 H   0  0
   -0.8379   -9.1462   -5.7220 H   0  0
   -1.6685   -9.7480   -3.5486 H   0  0
   -0.3393   -9.0983   -1.4593 H   0  0
    3.6522   -6.1686   -1.9753 H   0  0
    2.8453   -8.4848   -1.5939 H   0  0
    1.7438   -7.4985   -0.5797 H   0  0
    4.3807   -2.4087   -1.1600 H   0  0
    3.1007   -3.5564   -0.6615 H   0  0
    0.7464   -3.0117   -1.1263 H   0  0
    0.3471   -1.4878   -1.9704 H   0  0
    0.2310   -3.3960   -3.5831 H   0  0
    1.5491   -2.2549   -4.0022 H   0  0
    4.2780   -4.3119   -2.7787 H   0  0
    3.8095   -2.7736   -3.5545 H   0  0
    0.7134   -5.5590   -2.7499 H   0  0
    1.5730   -4.9272   -1.3267 H   0  0
    2.0411   -1.8045    0.5901 H   0  0
    3.3483   -0.7267    0.0849 H   0  0
    0.9791    0.4420   -1.0742 H   0  0
    1.5688    0.3412    1.8811 H   0  0
    0.4762    1.5257    0.9967 H   0  0
  1  2  1  0
  2  3  2  0
  3  4  1  0
  4  5  2  0
  5  6  1  0
  1  6  2  0
  7  8  1  0
  7  9  1  0
  8  6  1  0
  5  9  1  0
 10 11  1  0
 11 12  1  0
 12 13  1  0
 13 14  1  0
 14 15  1  0
 10 15  1  0
  7 16  1  0
 16 14  1  0
 11 17  1  0
 17 18  1  0
 18 19  2  0
  1 20  1  0
  2 21  1  0
  3 22  1  0
  4 23  1  0
  7 24  1  0
  9 25  1  0
  9 26  1  0
 10 27  1  0
 10 28  1  0
 12 29  1  0
 12 30  1  0
 13 31  1  0
 13 32  1  0
 15 33  1  0
 15 34  1  0
 16 35  1  0
 16 36  1  0
 17 37  1  0
 17 38  1  0
 18 39  1  0
 19 40  1  0
 19 41  1  0
M  END
> <Name>
MG2020_7a

> <Clean Energy>
49.3096

$$$$
MG2020_8a
  DSViewer          3D                             0

 34 36  0  0  0  0  0  0  0  0999 V2000
    3.7103    3.3114   -5.7479 C   0  0
    4.5269    3.1414   -6.9736 C   0  0
    4.3176    2.0876   -7.7793 C   0  0
    3.2555    1.1116   -7.4543 C   0  0
    2.5535    1.3167   -6.3506 C   0  0
    2.7843    2.3985   -5.4906 C   0  0
    1.5884    0.9395   -4.3402 C   0  0  2  0  0  0
    1.9592    2.3144   -4.3989 O   0  0
    1.4103    0.5764   -5.8352 C   0  0
   -0.6479    1.0796    0.1192 C   0  0
    0.4497    0.3474    0.7634 N   0  0
    1.7176    0.6594    0.0907 C   0  0
    1.6280    0.2386   -1.3869 C   0  0
    0.5165    0.9796   -2.0485 N   0  0
   -0.7428    0.6638   -1.3602 C   0  0
    0.3537    0.5915   -3.4763 C   0  0
    3.8803    4.1205   -5.0842 H   0  0
    5.2837    3.8462   -7.2085 H   0  0
    4.9037    1.9632   -8.6542 H   0  0
    3.0441    0.2943   -8.0955 H   0  0
    2.4770    0.4052   -3.9816 H   0  0
    1.3416   -0.4930   -6.0771 H   0  0
    0.5165    1.0973   -6.2048 H   0  0
   -1.5932    0.8428    0.6268 H   0  0
   -0.4561    2.1602    0.1845 H   0  0
    0.2695   -0.6636    0.6987 H   0  0
    1.9106    1.7399    0.1537 H   0  0
    2.5354    0.1108    0.5781 H   0  0
    2.5834    0.4642   -1.8749 H   0  0
    1.4308   -0.8410   -1.4465 H   0  0
   -1.5651    1.2119   -1.8398 H   0  0
   -0.9335   -0.4166   -1.4277 H   0  0
   -0.5087    1.1362   -3.8840 H   0  0
    0.1602   -0.4883   -3.5324 H   0  0
  1  2  1  0  0  0
  2  3  2  0  0  0
  3  4  1  0  0  0
  4  5  2  0  0  0
  5  6  1  0  0  0
  1  6  2  0  0  0
  7  8  1  0  0  0
  7  9  1  0  0  0
  8  6  1  0  0  0
  5  9  1  0  0  0
 10 11  1  0  0  0
 11 12  1  0  0  0
 12 13  1  0  0  0
 13 14  1  0  0  0
 14 15  1  0  0  0
 10 15  1  0  0  0
  7 16  1  0  0  0
 16 14  1  0  0  0
  1 17  1  0  0  0
  2 18  1  0  0  0
  3 19  1  0  0  0
  4 20  1  0  0  0
  7 21  1  0  0  0
  9 22  1  0  0  0
  9 23  1  0  0  0
 10 24  1  0  0  0
 10 25  1  0  0  0
 11 26  1  0  0  0
 12 27  1  0  0  0
 12 28  1  0  0  0
 13 29  1  0  0  0
 13 30  1  0  0  0
 15 31  1  0  0  0
 15 32  1  0  0  0
 16 33  1  0  0  0
 16 34  1  0  0  0
M  END
> <Clean Energy>
1.55895e+06

$$$$
SBW2022_1
  DSViewer          3D                             0

 20 20  0  0  0  0  0  0  0  0999 V2000
   -1.6185    0.4472   -0.0002 C   0  0
   -2.8945   -0.2717   -0.0003 C   0  0
   -2.9085   -1.6038   -0.0001 C   0  0
   -1.6476   -2.3503    0.0003 C   0  0
   -0.4872   -1.6967    0.0004 C   0  0
   -0.4722   -0.2310    0.0001 C   0  0
    0.7997    0.4879    0.0002 C   0  0
    1.9466   -0.1871    0.0005 C   0  0
    3.2159    0.5357    0.0006 C   0  0
    4.4167   -0.1667    0.0008 O   0  0
    3.2222    1.7717    0.0004 O   0  0
   -4.1203   -2.2861   -0.0001 O   0  0
   -1.6070    1.5372   -0.0004 H   0  0
   -3.8327    0.2831   -0.0006 H   0  0
   -1.6594   -3.4403    0.0005 H   0  0
    0.4510   -2.2515    0.0006 H   0  0
    0.8093    1.5779    0.0000 H   0  0
    1.9387   -1.2771    0.0006 H   0  0
    4.4693   -0.7707    0.8581 H   0  0
   -4.6687   -2.0267    0.8569 H   0  0
  1  2  1  0  0  0
  2  3  2  0  0  0
  3  4  1  0  0  0
  4  5  2  0  0  0
  5  6  1  0  0  0
  1  6  2  0  0  0
  6  7  1  0  0  0
  7  8  2  0  0  0
  8  9  1  0  0  0
  9 10  1  0  0  0
  9 11  2  0  0  0
  3 12  1  0  0  0
  1 13  1  0  0  0
  2 14  1  0  0  0
  4 15  1  0  0  0
  5 16  1  0  0  0
  7 17  1  0  0  0
  8 18  1  0  0  0
 10 19  1  0  0  0
 12 20  1  0  0  0
M  END
> <Clean Energy>
61862.5

$$$$
SBW2022_1a
  SciTegic12132405553D

 23 23  0  0  0  0            999 V2000
   -1.7791    0.4195   -0.0001 C   0  0
   -3.0639   -0.2837   -0.0002 C   0  0
   -3.0942   -1.6155    0.0000 C   0  0
   -1.8425   -2.3775    0.0003 C   0  0
   -0.6741   -1.7381    0.0003 C   0  0
   -0.6413   -0.2726    0.0001 C   0  0
    0.6392    0.4310    0.0001 C   0  0
    1.7782   -0.2572    0.0002 C   0  0
    3.0547    0.4517    0.0002 C   0  0
    4.2487   -0.2659    0.0003 O   0  0
    3.0723    1.6880    0.0002 O   0  0
   -4.3143   -2.2829    0.0000 O   0  0
    5.3568    0.6389    0.0003 C   0  0
   -1.7543    1.5092   -0.0003 H   0  0
   -3.9952    0.2826   -0.0003 H   0  0
   -1.8676   -3.4672    0.0005 H   0  0
    0.2573   -2.3043    0.0005 H   0  0
    0.6616    1.5207    0.0000 H   0  0
    1.7583   -1.3470    0.0003 H   0  0
   -4.8594   -2.0168    0.8571 H   0  0
    6.2884    0.0733    0.0003 H   0  0
    5.3136    1.2670    0.8901 H   0  0
    5.3137    1.2669   -0.8896 H   0  0
  1  2  1  0
  2  3  2  0
  3  4  1  0
  4  5  2  0
  5  6  1  0
  1  6  2  0
  6  7  1  0
  7  8  2  0
  8  9  1  0
  9 10  1  0
  9 11  2  0
  3 12  1  0
 10 13  1  0
  1 14  1  0
  2 15  1  0
  4 16  1  0
  5 17  1  0
  7 18  1  0
  8 19  1  0
 12 20  1  0
 13 21  1  0
 13 22  1  0
 13 23  1  0
M  END
> <Name>
SBW2022_1a

> <Clean Energy>
-1.48072

$$$$
SBW2022_1b
  SciTegic12132405553D

 26 26  0  0  0  0            999 V2000
   -1.9631    0.4155   -0.0001 C   0  0
   -3.2526   -0.2786   -0.0001 C   0  0
   -3.2922   -1.6100    0.0000 C   0  0
   -2.0456   -2.3807    0.0003 C   0  0
   -0.8727   -1.7495    0.0003 C   0  0
   -0.8300   -0.2842    0.0001 C   0  0
    0.4548    0.4119    0.0001 C   0  0
    1.5913   -0.2803    0.0002 C   0  0
    2.8689    0.4266    0.0002 C   0  0
    4.0619   -0.2909    0.0002 O   0  0
    2.8879    1.6629    0.0002 O   0  0
   -4.5171   -2.2687    0.0000 O   0  0
    5.1680    0.6160    0.0002 C   0  0
    6.4851   -0.1800    0.0001 C   0  0
   -1.9308    1.5050   -0.0003 H   0  0
   -4.1799    0.2943   -0.0003 H   0  0
   -2.0784   -3.4702    0.0004 H   0  0
    0.0547   -2.3221    0.0005 H   0  0
    0.4823    1.5016    0.0000 H   0  0
    1.5686   -1.3700    0.0003 H   0  0
   -5.0602   -1.9988    0.8571 H   0  0
    5.1230    1.2435   -0.8900 H   0  0
    5.1231    1.2435    0.8903 H   0  0
    7.3279    0.5111    0.0000 H   0  0
    6.5307   -0.8079   -0.8898 H   0  0
    6.5308   -0.8079    0.8899 H   0  0
  1  2  1  0
  2  3  2  0
  3  4  1  0
  4  5  2  0
  5  6  1  0
  1  6  2  0
  6  7  1  0
  7  8  2  0
  8  9  1  0
  9 10  1  0
  9 11  2  0
  3 12  1  0
 10 13  1  0
 13 14  1  0
  1 15  1  0
  2 16  1  0
  4 17  1  0
  5 18  1  0
  7 19  1  0
  8 20  1  0
 12 21  1  0
 13 22  1  0
 13 23  1  0
 14 24  1  0
 14 25  1  0
 14 26  1  0
M  END
> <Name>
SBW2022_1b

> <Clean Energy>
-1.69393

$$$$
SBW2022_1c
  SciTegic12132405553D

 29 29  0  0  0  0            999 V2000
   -2.1081    0.3358   -0.1614 C   0  0
   -3.3924   -0.3599   -0.0710 C   0  0
   -3.4238   -1.6812    0.0922 C   0  0
   -2.1716   -2.4389    0.1841 C   0  0
   -1.0025   -1.8052    0.1044 C   0  0
   -0.9697   -0.3509   -0.0775 C   0  0
    0.3075    0.3521   -0.1768 C   0  0
    1.4570   -0.3084   -0.0585 C   0  0
    2.7154    0.4228   -0.1818 C   0  0
    3.9382   -0.2643   -0.0298 O   0  0
    2.6843    1.6292   -0.4532 O   0  0
   -4.6449   -2.3418    0.1753 O   0  0
    5.0935    0.5960   -0.1774 C   0  0
    6.3637   -0.2731   -0.1614 C   0  0
    5.1879    1.6090    0.9936 C   0  0
   -2.0830    1.4170   -0.2974 H   0  0
   -4.3233    0.2033   -0.1372 H   0  0
   -2.1975   -3.5204    0.3177 H   0  0
   -0.0713   -2.3674    0.1744 H   0  0
    0.3190    1.4283   -0.3495 H   0  0
    1.4593   -1.3823    0.1282 H   0  0
   -5.1884   -1.9719    0.9941 H   0  0
    5.0304    1.1345   -1.1230 H   0  0
    7.2415    0.3634   -0.2718 H   0  0
    6.3269   -0.9865   -0.9847 H   0  0
    6.4234   -0.8127    0.7839 H   0  0
    6.0645    2.2422    0.8571 H   0  0
    5.2741    1.0684    1.9362 H   0  0
    4.2917    2.2291    1.0114 H   0  0
  1  2  1  0
  2  3  2  0
  3  4  1  0
  4  5  2  0
  5  6  1  0
  1  6  2  0
  6  7  1  0
  7  8  2  0
  8  9  1  0
  9 10  1  0
  9 11  2  0
  3 12  1  0
 10 13  1  0
 13 14  1  0
 13 15  1  0
  1 16  1  0
  2 17  1  0
  4 18  1  0
  5 19  1  0
  7 20  1  0
  8 21  1  0
 12 22  1  0
 13 23  1  0
 14 24  1  0
 14 25  1  0
 14 26  1  0
 15 27  1  0
 15 28  1  0
 15 29  1  0
M  END
> <Name>
SBW2022_1c

> <Clean Energy>
-0.252171

$$$$
SBW2022_1d
  SciTegic12132405553D

 32 32  0  0  0  0            999 V2000
   -2.3618    0.4026   -0.0001 C   0  0
   -3.6604   -0.2748   -0.0002 C   0  0
   -3.7175   -1.6056    0.0001 C   0  0
   -2.4810   -2.3925    0.0003 C   0  0
   -1.3001   -1.7767    0.0003 C   0  0
   -1.2376   -0.3121    0.0001 C   0  0
    0.0568    0.3673    0.0001 C   0  0
    1.1838   -0.3410    0.0002 C   0  0
    2.4729    0.3463    0.0002 C   0  0
    3.6542   -0.3910    0.0002 O   0  0
    2.5120    1.5819    0.0001 O   0  0
   -4.9509   -2.2484    0.0001 O   0  0
    4.7757    0.4962    0.0001 C   0  0
    6.0776   -0.3235   -0.0001 C   0  0
    7.2850    0.6315   -0.0003 C   0  0
    8.5881   -0.1887   -0.0004 C   0  0
   -2.3153    1.4916   -0.0003 H   0  0
   -4.5801    0.3101   -0.0003 H   0  0
   -2.5279   -3.4815    0.0005 H   0  0
   -0.3803   -2.3615    0.0005 H   0  0
    0.0992    1.4565    0.0000 H   0  0
    1.1450   -1.4304    0.0003 H   0  0
   -5.4905   -1.9714    0.8572 H   0  0
    4.7418    1.1244   -0.8901 H   0  0
    4.7420    1.1244    0.8902 H   0  0
    6.1114   -0.9517    0.8900 H   0  0
    6.1112   -0.9517   -0.8902 H   0  0
    7.2511    1.2597   -0.8904 H   0  0
    7.2513    1.2596    0.8899 H   0  0
    9.4433    0.4870   -0.0006 H   0  0
    8.6222   -0.8173   -0.8903 H   0  0
    8.6225   -0.8173    0.8894 H   0  0
  1  2  1  0
  2  3  2  0
  3  4  1  0
  4  5  2  0
  5  6  1  0
  1  6  2  0
  6  7  1  0
  7  8  2  0
  8  9  1  0
  9 10  1  0
  9 11  2  0
  3 12  1  0
 10 13  1  0
 13 14  1  0
 14 15  1  0
 15 16  1  0
  1 17  1  0
  2 18  1  0
  4 19  1  0
  5 20  1  0
  7 21  1  0
  8 22  1  0
 12 23  1  0
 13 24  1  0
 13 25  1  0
 14 26  1  0
 14 27  1  0
 15 28  1  0
 15 29  1  0
 16 30  1  0
 16 31  1  0
 16 32  1  0
M  END
> <Name>
SBW2022_1d

> <Clean Energy>
-1.92767

$$$$
SBW2022_1e
  SciTegic12132405553D

 33 33  0  0  0  0            999 V2000
   -2.3688    0.3738   -0.0001 C   0  0
   -3.6591   -0.3161   -0.0001 C   0  0
   -3.7021   -1.6469    0.0001 C   0  0
   -2.4562   -2.4212    0.0003 C   0  0
   -1.2812   -1.7928    0.0003 C   0  0
   -1.2358   -0.3277    0.0001 C   0  0
    0.0461    0.3748    0.0001 C   0  0
    1.1965   -0.2965    0.0002 C   0  0
    2.4505    0.4548    0.0002 C   0  0
    3.6200   -0.1785    0.0001 N   0  0
    2.4230    1.6895    0.0001 O   0  0
   -4.9293   -2.3017    0.0001 O   0  0
    4.8314    0.5922    0.0001 C   0  0
    6.0540   -0.3402   -0.0002 C   0  0
    7.3367    0.5136   -0.0002 C   0  0
    8.5711   -0.4059   -0.0005 C   0  0
   -2.3343    1.4633   -0.0003 H   0  0
   -4.5848    0.2593   -0.0003 H   0  0
   -2.4916   -3.5106    0.0005 H   0  0
   -0.3550   -2.3675    0.0005 H   0  0
    0.0608    1.4647    0.0000 H   0  0
    1.2029   -1.3865    0.0003 H   0  0
    3.6577   -1.2478    0.0002 H   0  0
   -5.4716   -2.0300    0.8572 H   0  0
    4.8580    1.2209   -0.8900 H   0  0
    4.8582    1.2207    0.8903 H   0  0
    6.0339   -0.9691    0.8899 H   0  0
    6.0337   -0.9689   -0.8904 H   0  0
    7.3533    1.1425   -0.8903 H   0  0
    7.3535    1.1423    0.8900 H   0  0
    9.4766    0.2007   -0.0005 H   0  0
    8.5559   -1.0352   -0.8904 H   0  0
    8.5561   -1.0354    0.8893 H   0  0
  1  2  1  0
  2  3  2  0
  3  4  1  0
  4  5  2  0
  5  6  1  0
  1  6  2  0
  6  7  1  0
  7  8  2  0
  8  9  1  0
  9 10  1  0
  9 11  2  0
  3 12  1  0
 10 13  1  0
 13 14  1  0
 14 15  1  0
 15 16  1  0
  1 17  1  0
  2 18  1  0
  4 19  1  0
  5 20  1  0
  7 21  1  0
  8 22  1  0
 10 23  1  0
 12 24  1  0
 13 25  1  0
 13 26  1  0
 14 27  1  0
 14 28  1  0
 15 29  1  0
 15 30  1  0
 16 31  1  0
 16 32  1  0
 16 33  1  0
M  END
> <Name>
SBW2022_1e

> <Clean Energy>
-1.8498

$$$$
SBW2022_2
  SciTegic12132405553D

 11 11  0  0  0  0            999 V2000
   -1.7705    0.3877   -0.0002 C   0  0
   -3.0488   -0.3280   -0.0004 C   0  0
   -3.0666   -1.6601   -0.0002 C   0  0
   -1.8075   -2.4100    0.0002 C   0  0
   -0.6453   -1.7594    0.0003 C   0  0
   -0.6260   -0.2937    0.0001 C   0  0
    0.6481    0.4214    0.0002 C   0  0
    1.7926   -0.2576    0.0005 C   0  0
    3.0646    0.4606    0.0006 C   0  0
    4.2628   -0.2463    0.0009 O   0  0
    3.0754    1.6966    0.0005 O   0  0
  1  2  1  0
  2  3  2  0
  3  4  1  0
  4  5  2  0
  5  6  1  0
  1  6  2  0
  6  7  1  0
  7  8  2  0
  8  9  1  0
  9 10  1  0
  9 11  2  0
M  END
> <Name>
SBW2022_2

> <Clean Energy>
-1.15647

$$$$
SBW2022_2a
  SciTegic12132405553D

 22 22  0  0  0  0            999 V2000
   -1.9341    0.3698   -0.0002 C   0  0
   -3.2217   -0.3291   -0.0003 C   0  0
   -3.2568   -1.6608   -0.0001 C   0  0
   -2.0076   -2.4271    0.0002 C   0  0
   -0.8370   -1.7918    0.0003 C   0  0
   -0.7987   -0.3264    0.0001 C   0  0
    0.4846    0.3722    0.0002 C   0  0
    1.6205   -0.3211    0.0004 C   0  0
    2.9004    0.3814    0.0005 C   0  0
    4.0907   -0.3424    0.0006 O   0  0
    2.9243    1.6176    0.0004 O   0  0
    5.2035    0.5566    0.0007 C   0  0
   -1.9054    1.4595   -0.0004 H   0  0
   -4.1510    0.2406   -0.0005 H   0  0
   -4.2149   -2.1806   -0.0002 H   0  0
   -2.0365   -3.5167    0.0003 H   0  0
    0.0923   -2.3614    0.0005 H   0  0
    0.5116    1.4619    0.0001 H   0  0
    1.5954   -1.4108    0.0005 H   0  0
    6.1322   -0.0139    0.0008 H   0  0
    5.1636    1.1849    0.8905 H   0  0
    5.1637    1.1848   -0.8892 H   0  0
  1  2  1  0
  2  3  2  0
  3  4  1  0
  4  5  2  0
  5  6  1  0
  1  6  2  0
  6  7  1  0
  7  8  2  0
  8  9  1  0
  9 10  1  0
  9 11  2  0
 10 12  1  0
  1 13  1  0
  2 14  1  0
  3 15  1  0
  4 16  1  0
  5 17  1  0
  7 18  1  0
  8 19  1  0
 12 20  1  0
 12 21  1  0
 12 22  1  0
M  END
> <Name>
SBW2022_2a

> <Clean Energy>
-1.35721

$$$$
SBW2022_2b
  SciTegic12132405553D

 25 25  0  0  0  0            999 V2000
   -2.1226    0.3737   -0.0001 C   0  0
   -3.4141   -0.3176   -0.0002 C   0  0
   -3.4571   -1.6490   -0.0001 C   0  0
   -2.2122   -2.4226    0.0001 C   0  0
   -1.0379   -1.7942    0.0002 C   0  0
   -0.9910   -0.3291    0.0001 C   0  0
    0.2958    0.3630    0.0002 C   0  0
    1.4293   -0.3345    0.0002 C   0  0
    2.7105    0.3655    0.0003 C   0  0
    3.8993   -0.3593    0.0002 O   0  0
    2.7367    1.6015    0.0004 O   0  0
    5.0111    0.5404    0.0002 C   0  0
    6.3228   -0.2645    0.0000 C   0  0
   -2.0875    1.4631   -0.0001 H   0  0
   -4.3400    0.2576   -0.0003 H   0  0
   -4.4182   -2.1632   -0.0001 H   0  0
   -2.2475   -3.5120    0.0002 H   0  0
   -0.1119   -2.3693    0.0004 H   0  0
    0.3275    1.4525    0.0002 H   0  0
    1.4012   -1.4241    0.0002 H   0  0
    4.9701    1.1683   -0.8898 H   0  0
    4.9703    1.1680    0.8905 H   0  0
    7.1702    0.4209    0.0000 H   0  0
    6.3641   -0.8925   -0.8900 H   0  0
    6.3643   -0.8928    0.8897 H   0  0
  1  2  1  0
  2  3  2  0
  3  4  1  0
  4  5  2  0
  5  6  1  0
  1  6  2  0
  6  7  1  0
  7  8  2  0
  8  9  1  0
  9 10  1  0
  9 11  2  0
 10 12  1  0
 12 13  1  0
  1 14  1  0
  2 15  1  0
  3 16  1  0
  4 17  1  0
  5 18  1  0
  7 19  1  0
  8 20  1  0
 12 21  1  0
 12 22  1  0
 13 23  1  0
 13 24  1  0
 13 25  1  0
M  END
> <Name>
SBW2022_2b

> <Clean Energy>
-1.57166

$$$$
SBW2022_2c
  SciTegic12132405553D

 28 28  0  0  0  0            999 V2000
   -2.2682    0.2908    0.1412 C   0  0
   -3.5523   -0.4031    0.0274 C   0  0
   -3.5833   -1.7222   -0.1534 C   0  0
   -2.3308   -2.4798   -0.2404 C   0  0
   -1.1626   -1.8486   -0.1395 C   0  0
   -1.1285   -0.3976    0.0609 C   0  0
    0.1482    0.3022    0.1788 C   0  0
    1.2964   -0.3622    0.0559 C   0  0
    2.5578    0.3612    0.1926 C   0  0
    3.7768   -0.3311    0.0295 O   0  0
    2.5335    1.5632    0.4801 O   0  0
    4.9369    0.5206    0.1860 C   0  0
    6.2020   -0.3556    0.1554 C   0  0
    5.0342    1.5472   -0.9729 C   0  0
   -2.2435    1.3701    0.2916 H   0  0
   -4.4834    0.1601    0.0907 H   0  0
   -4.5395   -2.2387   -0.2367 H   0  0
   -2.3560   -3.5595   -0.3876 H   0  0
   -0.2315   -2.4115   -0.2060 H   0  0
    0.1617    1.3755    0.3685 H   0  0
    1.2944   -1.4337   -0.1443 H   0  0
    4.8790    1.0475    1.1385 H   0  0
    7.0838    0.2743    0.2724 H   0  0
    6.2565   -0.8827   -0.7972 H   0  0
    6.1629   -1.0797    0.9692 H   0  0
    5.9144    2.1742   -0.8306 H   0  0
    4.1412    2.1721   -0.9814 H   0  0
    5.1157    1.0176   -1.9222 H   0  0
  1  2  1  0
  2  3  2  0
  3  4  1  0
  4  5  2  0
  5  6  1  0
  1  6  2  0
  6  7  1  0
  7  8  2  0
  8  9  1  0
  9 10  1  0
  9 11  2  0
 10 12  1  0
 12 13  1  0
 12 14  1  0
  1 15  1  0
  2 16  1  0
  3 17  1  0
  4 18  1  0
  5 19  1  0
  7 20  1  0
  8 21  1  0
 12 22  1  0
 13 23  1  0
 13 24  1  0
 13 25  1  0
 14 26  1  0
 14 27  1  0
 14 28  1  0
M  END
> <Name>
SBW2022_2c

> <Clean Energy>
-0.138197

$$$$
SBW2022_2d
  SciTegic12132405553D

 31 31  0  0  0  0            999 V2000
   -2.5283    0.3733   -0.0001 C   0  0
   -3.8287   -0.3016   -0.0002 C   0  0
   -3.8886   -1.6324   -0.0001 C   0  0
   -2.6537   -2.4217    0.0001 C   0  0
   -1.4714   -1.8082    0.0002 C   0  0
   -1.4059   -0.3436    0.0001 C   0  0
   -0.1096    0.3317    0.0002 C   0  0
    1.0141   -0.3812    0.0003 C   0  0
    2.3064    0.2991    0.0003 C   0  0
    3.4833   -0.4446    0.0002 O   0  0
    2.3521    1.5347    0.0004 O   0  0
    4.6097    0.4360    0.0002 C   0  0
    5.9064   -0.3917   -0.0002 C   0  0
    7.1194    0.5559   -0.0002 C   0  0
    8.4174   -0.2722   -0.0006 C   0  0
   -2.4794    1.4622   -0.0001 H   0  0
   -4.7473    0.2852   -0.0003 H   0  0
   -4.8561   -2.1344   -0.0002 H   0  0
   -2.7028   -3.5106    0.0002 H   0  0
   -0.5528   -2.3949    0.0004 H   0  0
   -0.0632    1.4207    0.0002 H   0  0
    0.9701   -1.4703    0.0002 H   0  0
    4.5795    1.0645   -0.8898 H   0  0
    4.5798    1.0641    0.8905 H   0  0
    5.9364   -1.0202    0.8899 H   0  0
    5.9361   -1.0199   -0.8904 H   0  0
    7.0893    1.1845   -0.8902 H   0  0
    7.0896    1.1841    0.8901 H   0  0
    9.2767    0.3983   -0.0006 H   0  0
    8.4476   -0.9008   -0.8906 H   0  0
    8.4480   -0.9012    0.8891 H   0  0
  1  2  1  0
  2  3  2  0
  3  4  1  0
  4  5  2  0
  5  6  1  0
  1  6  2  0
  6  7  1  0
  7  8  2  0
  8  9  1  0
  9 10  1  0
  9 11  2  0
 10 12  1  0
 12 13  1  0
 13 14  1  0
 14 15  1  0
  1 16  1  0
  2 17  1  0
  3 18  1  0
  4 19  1  0
  5 20  1  0
  7 21  1  0
  8 22  1  0
 12 23  1  0
 12 24  1  0
 13 25  1  0
 13 26  1  0
 14 27  1  0
 14 28  1  0
 15 29  1  0
 15 30  1  0
 15 31  1  0
M  END
> <Name>
SBW2022_2d

> <Clean Energy>
-1.8051

$$$$
SBW2022_2e
  SciTegic12132405553D

 32 32  0  0  0  0            999 V2000
   -2.5384    0.3336   -0.0001 C   0  0
   -3.8266   -0.3619   -0.0002 C   0  0
   -3.8644   -1.6932   -0.0001 C   0  0
   -2.6157   -2.4620    0.0001 C   0  0
   -1.4435   -1.8292    0.0002 C   0  0
   -1.4027   -0.3645    0.0001 C   0  0
   -0.1225    0.3401    0.0002 C   0  0
    1.0269   -0.3338    0.0003 C   0  0
    2.2834    0.4124    0.0004 C   0  0
    3.4495   -0.2281    0.0003 N   0  0
    2.2623    1.6465    0.0005 O   0  0
    4.6655    0.5347    0.0004 C   0  0
    5.8812   -0.4068   -0.0002 C   0  0
    7.1701    0.4373   -0.0002 C   0  0
    8.3974   -0.4916   -0.0008 C   0  0
   -2.5079    1.4232   -0.0002 H   0  0
   -4.7547    0.2097   -0.0004 H   0  0
   -4.8234   -2.2113   -0.0002 H   0  0
   -2.6467   -3.5516    0.0002 H   0  0
   -0.5153   -2.4006    0.0004 H   0  0
   -0.1077    1.4300    0.0002 H   0  0
    1.0300   -1.4238    0.0003 H   0  0
    3.4805   -1.2976    0.0002 H   0  0
    4.6964    1.1634   -0.8895 H   0  0
    4.6967    1.1626    0.8908 H   0  0
    5.8565   -1.0357    0.8897 H   0  0
    5.8561   -1.0350   -0.8906 H   0  0
    7.1914    1.0664   -0.8901 H   0  0
    7.1918    1.0656    0.8902 H   0  0
    9.3076    0.1081   -0.0008 H   0  0
    8.3773   -1.1204   -0.8910 H   0  0
    8.3777   -1.1212    0.8888 H   0  0
  1  2  1  0
  2  3  2  0
  3  4  1  0
  4  5  2  0
  5  6  1  0
  1  6  2  0
  6  7  1  0
  7  8  2  0
  8  9  1  0
  9 10  1  0
  9 11  2  0
 10 12  1  0
 12 13  1  0
 13 14  1  0
 14 15  1  0
  1 16  1  0
  2 17  1  0
  3 18  1  0
  4 19  1  0
  5 20  1  0
  7 21  1  0
  8 22  1  0
 10 23  1  0
 12 24  1  0
 12 25  1  0
 13 26  1  0
 13 27  1  0
 14 28  1  0
 14 29  1  0
 15 30  1  0
 15 31  1  0
 15 32  1  0
M  END
> <Name>
SBW2022_2e

> <Clean Energy>
-1.75076

$$$$
SBW2022_3
  SciTegic12132405553D

 23 23  0  0  0  0            999 V2000
   -1.4606    0.4623   -0.0003 C   0  0
   -2.7320   -0.2646   -0.0004 C   0  0
   -2.7416   -1.5996   -0.0001 C   0  0
   -1.4730   -2.3343    0.0003 C   0  0
   -0.3169   -1.6731    0.0004 C   0  0
   -0.3106   -0.2083    0.0001 C   0  0
    0.9568    0.5186    0.0002 C   0  0
    2.1082   -0.1484    0.0005 C   0  0
    3.3722    0.5838    0.0006 C   0  0
    4.5782   -0.1095    0.0009 O   0  0
    3.3692    1.8199    0.0004 O   0  0
   -3.9530   -2.3154   -0.0002 O   0  0
   -5.0869   -1.4330   -0.0006 C   0  0
   -1.4559    1.5523   -0.0005 H   0  0
   -3.6729    0.2857   -0.0007 H   0  0
   -1.4759   -3.4243    0.0005 H   0  0
    0.6248   -2.2220    0.0007 H   0  0
    0.9591    1.6086    0.0000 H   0  0
    2.1082   -1.2384    0.0007 H   0  0
    4.6353   -0.7131    0.8582 H   0  0
   -6.0050   -2.0205   -0.0007 H   0  0
   -5.0583   -0.8044   -0.8906 H   0  0
   -5.0587   -0.8040    0.8891 H   0  0
  1  2  1  0
  2  3  2  0
  3  4  1  0
  4  5  2  0
  5  6  1  0
  1  6  2  0
  6  7  1  0
  7  8  2  0
  8  9  1  0
  9 10  1  0
  9 11  2  0
  3 12  1  0
 12 13  1  0
  1 14  1  0
  2 15  1  0
  4 16  1  0
  5 17  1  0
  7 18  1  0
  8 19  1  0
 10 20  1  0
 13 21  1  0
 13 22  1  0
 13 23  1  0
M  END
> <Name>
SBW2022_3

> <Clean Energy>
-1.02981

$$$$
SBW2022_3a
  SciTegic12132405553D

 26 26  0  0  0  0            999 V2000
   -1.6204    0.4288   -0.0003 C   0  0
   -2.8999   -0.2840   -0.0003 C   0  0
   -2.9243   -1.6188   -0.0001 C   0  0
   -1.6640   -2.3675    0.0003 C   0  0
   -0.5006   -1.7192    0.0004 C   0  0
   -0.4779   -0.2547    0.0001 C   0  0
    0.7975    0.4580    0.0001 C   0  0
    1.9412   -0.2222    0.0004 C   0  0
    3.2127    0.4955    0.0004 C   0  0
    4.4116   -0.2138    0.0006 O   0  0
    3.2217    1.7319    0.0003 O   0  0
   -4.1435   -2.3211   -0.0002 O   0  0
   -5.2676   -1.4264   -0.0005 C   0  0
    5.5133    0.6987    0.0006 C   0  0
   -1.6036    1.5187   -0.0005 H   0  0
   -3.8346    0.2768   -0.0006 H   0  0
   -1.6790   -3.4574    0.0005 H   0  0
    0.4349   -2.2786    0.0006 H   0  0
    0.8122    1.5479    0.0000 H   0  0
    1.9289   -1.3121    0.0005 H   0  0
   -6.1921   -2.0036   -0.0006 H   0  0
   -5.2321   -0.7980   -0.8905 H   0  0
   -5.2325   -0.7977    0.8892 H   0  0
    6.4489    0.1394    0.0007 H   0  0
    5.4658    1.3265    0.8904 H   0  0
    5.4660    1.3263   -0.8894 H   0  0
  1  2  1  0
  2  3  2  0
  3  4  1  0
  4  5  2  0
  5  6  1  0
  1  6  2  0
  6  7  1  0
  7  8  2  0
  8  9  1  0
  9 10  1  0
  9 11  2  0
  3 12  1  0
 12 13  1  0
 10 14  1  0
  1 15  1  0
  2 16  1  0
  4 17  1  0
  5 18  1  0
  7 19  1  0
  8 20  1  0
 13 21  1  0
 13 22  1  0
 13 23  1  0
 14 24  1  0
 14 25  1  0
 14 26  1  0
M  END
> <Name>
SBW2022_3a

> <Clean Energy>
-1.23064

$$$$
SBW2022_3b
  SciTegic12132405553D

 29 29  0  0  0  0            999 V2000
   -1.8024    0.4196   -0.0002 C   0  0
   -3.0865   -0.2845   -0.0002 C   0  0
   -3.1199   -1.6190   -0.0001 C   0  0
   -1.8643   -2.3762    0.0002 C   0  0
   -0.6966   -1.7356    0.0003 C   0  0
   -0.6643   -0.2712    0.0001 C   0  0
    0.6151    0.4343    0.0002 C   0  0
    1.7563   -0.2503    0.0002 C   0  0
    3.0293    0.4646    0.0003 C   0  0
    4.2265   -0.2459    0.0002 O   0  0
    3.0407    1.7009    0.0003 O   0  0
   -4.3439   -2.3129   -0.0002 O   0  0
   -5.4618   -1.4102   -0.0005 C   0  0
    5.3274    0.6671    0.0002 C   0  0
    6.6487   -0.1219   -0.0001 C   0  0
   -1.7785    1.5094   -0.0003 H   0  0
   -4.0174    0.2826   -0.0005 H   0  0
   -1.8866   -3.4660    0.0004 H   0  0
    0.2351   -2.3012    0.0005 H   0  0
    0.6350    1.5241    0.0001 H   0  0
    1.7407   -1.3402    0.0003 H   0  0
   -6.3903   -1.9810   -0.0005 H   0  0
   -5.4220   -0.7821   -0.8904 H   0  0
   -5.4222   -0.7818    0.8893 H   0  0
    5.2789    1.2944   -0.8899 H   0  0
    5.2791    1.2942    0.8904 H   0  0
    7.4878    0.5737   -0.0001 H   0  0
    6.6976   -0.7494   -0.8900 H   0  0
    6.6978   -0.7496    0.8897 H   0  0
  1  2  1  0
  2  3  2  0
  3  4  1  0
  4  5  2  0
  5  6  1  0
  1  6  2  0
  6  7  1  0
  7  8  2  0
  8  9  1  0
  9 10  1  0
  9 11  2  0
  3 12  1  0
 12 13  1  0
 10 14  1  0
 14 15  1  0
  1 16  1  0
  2 17  1  0
  4 18  1  0
  5 19  1  0
  7 20  1  0
  8 21  1  0
 13 22  1  0
 13 23  1  0
 13 24  1  0
 14 25  1  0
 14 26  1  0
 15 27  1  0
 15 28  1  0
 15 29  1  0
M  END
> <Name>
SBW2022_3b

> <Clean Energy>
-1.44454

$$$$
SBW2022_3e
  SciTegic12132405553D

 36 36  0  0  0  0            999 V2000
   -2.2012    0.3749   -0.0002 C   0  0
   -3.4870   -0.3224   -0.0003 C   0  0
   -3.5270   -1.6560   -0.0001 C   0  0
   -2.2733   -2.4198    0.0003 C   0  0
   -1.1022   -1.7843    0.0003 C   0  0
   -1.0644   -0.3201    0.0001 C   0  0
    0.2129    0.3907    0.0001 C   0  0
    1.3677   -0.2736    0.0002 C   0  0
    2.6169    0.4858    0.0003 C   0  0
    3.7899   -0.1418    0.0003 N   0  0
    2.5825    1.7198    0.0002 O   0  0
   -4.7556   -2.3426   -0.0001 O   0  0
   -5.8680   -1.4319   -0.0005 C   0  0
    4.9978    0.6340    0.0003 C   0  0
    6.2231   -0.2951    0.0003 C   0  0
    7.5040    0.5610    0.0003 C   0  0
    8.7398   -0.3567    0.0004 C   0  0
   -2.1730    1.4645   -0.0004 H   0  0
   -4.4152    0.2491   -0.0005 H   0  0
   -2.3006   -3.5095    0.0004 H   0  0
   -0.1728   -2.3538    0.0005 H   0  0
    0.2206    1.4807    0.0000 H   0  0
    1.3809   -1.3635    0.0004 H   0  0
    3.8324   -1.2110    0.0004 H   0  0
   -6.8004   -1.9964   -0.0005 H   0  0
   -5.8240   -0.8041   -0.8905 H   0  0
   -5.8242   -0.8037    0.8893 H   0  0
    5.0224    1.2626   -0.8898 H   0  0
    5.0223    1.2626    0.8904 H   0  0
    6.2043   -0.9239    0.8905 H   0  0
    6.2043   -0.9240   -0.8898 H   0  0
    7.5196    1.1899   -0.8898 H   0  0
    7.5196    1.1899    0.8904 H   0  0
    9.6444    0.2513    0.0004 H   0  0
    8.7256   -0.9860   -0.8895 H   0  0
    8.7256   -0.9860    0.8903 H   0  0
  1  2  1  0
  2  3  2  0
  3  4  1  0
  4  5  2  0
  5  6  1  0
  1  6  2  0
  6  7  1  0
  7  8  2  0
  8  9  1  0
  9 10  1  0
  9 11  2  0
  3 12  1  0
 12 13  1  0
 10 14  1  0
 14 15  1  0
 15 16  1  0
 16 17  1  0
  1 18  1  0
  2 19  1  0
  4 20  1  0
  5 21  1  0
  7 22  1  0
  8 23  1  0
 10 24  1  0
 13 25  1  0
 13 26  1  0
 13 27  1  0
 14 28  1  0
 14 29  1  0
 15 30  1  0
 15 31  1  0
 16 32  1  0
 16 33  1  0
 17 34  1  0
 17 35  1  0
 17 36  1  0
M  END
> <Name>
SBW2022_3e

> <Clean Energy>
-1.6048

$$$$
SBW2022_4
  SciTegic12132405553D

 21 21  0  0  0  0            999 V2000
   -1.4896    0.4218   -0.0003 C   0  0
   -2.7658   -0.2960   -0.0002 C   0  0
   -2.7814   -1.6278    0.0001 C   0  0
   -1.5218   -2.3757    0.0005 C   0  0
   -0.3608   -1.7232    0.0005 C   0  0
   -0.3442   -0.2575    0.0001 C   0  0
    0.9284    0.4599    0.0001 C   0  0
    2.0744   -0.2165    0.0003 C   0  0
    3.3447    0.5047    0.0003 C   0  0
    3.3525    1.7408    0.0001 O   0  0
   -3.9941   -2.3081    0.0001 O   0  0
    4.5446   -0.1992    0.0005 O   0  0
   -3.9621    0.4126   -0.0006 O   0  0
   -1.4771    1.5117   -0.0006 H   0  0
   -1.5347   -3.4656    0.0009 H   0  0
    0.5769   -2.2789    0.0007 H   0  0
    0.9392    1.5499   -0.0001 H   0  0
    2.0653   -1.3064    0.0006 H   0  0
   -4.5420   -2.0478    0.8573 H   0  0
    4.5964   -0.8032    0.8578 H   0  0
   -4.0116    1.0173    0.8564 H   0  0
  1  2  1  0
  2  3  2  0
  3  4  1  0
  4  5  2  0
  5  6  1  0
  1  6  2  0
  6  7  1  0
  7  8  2  0
  8  9  1  0
  9 10  2  0
  3 11  1  0
  9 12  1  0
  2 13  1  0
  1 14  1  0
  4 15  1  0
  5 16  1  0
  7 17  1  0
  8 18  1  0
 11 19  1  0
 12 20  1  0
 13 21  1  0
M  END
> <Name>
SBW2022_4

> <Clean Energy>
-1.47247

$$$$
SBW2022_4a
  SciTegic12132405553D

 24 24  0  0  0  0            999 V2000
   -1.6496    0.3950   -0.0002 C   0  0
   -2.9333   -0.3096   -0.0002 C   0  0
   -2.9626   -1.6412    0.0002 C   0  0
   -1.7108   -2.4020    0.0005 C   0  0
   -0.5431   -1.7616    0.0005 C   0  0
   -0.5113   -0.2962    0.0001 C   0  0
    0.7687    0.4079    0.0000 C   0  0
    1.9074   -0.2806    0.0003 C   0  0
    3.1846    0.4269    0.0002 C   0  0
    3.2038    1.6632    0.0001 O   0  0
   -4.1823   -2.3089    0.0002 O   0  0
    4.3777   -0.2924    0.0004 O   0  0
   -4.1222    0.4113   -0.0005 O   0  0
    5.4871    0.6108    0.0003 C   0  0
   -1.6258    1.4847   -0.0005 H   0  0
   -1.7350   -3.4918    0.0008 H   0  0
    0.3888   -2.3270    0.0008 H   0  0
    0.7910    1.4977   -0.0002 H   0  0
    1.8868   -1.3704    0.0005 H   0  0
   -4.7275   -2.0429    0.8573 H   0  0
   -4.1654    1.0164    0.8565 H   0  0
    6.4179    0.0437    0.0004 H   0  0
    5.4449    1.2390    0.8901 H   0  0
    5.4450    1.2388   -0.8897 H   0  0
  1  2  1  0
  2  3  2  0
  3  4  1  0
  4  5  2  0
  5  6  1  0
  1  6  2  0
  6  7  1  0
  7  8  2  0
  8  9  1  0
  9 10  2  0
  3 11  1  0
  9 12  1  0
  2 13  1  0
 12 14  1  0
  1 15  1  0
  4 16  1  0
  5 17  1  0
  7 18  1  0
  8 19  1  0
 11 20  1  0
 13 21  1  0
 14 22  1  0
 14 23  1  0
 14 24  1  0
M  END
> <Name>
SBW2022_4a

> <Clean Energy>
-1.67327

$$$$
SBW2022_5e
  SciTegic12132405553D

 35 36  0  0  0  0            999 V2000
   -2.2038    0.3844    0.0004 C   0  0
   -3.3358   -0.3076    0.0003 C   0  0
   -3.3680   -1.6789    0.0002 C   0  0
   -2.2681   -2.4239    0.0001 C   0  0
   -0.9684   -1.7183    0.0002 C   0  0
   -0.9395   -0.3780    0.0003 C   0  0
    0.3363    0.3380    0.0004 C   0  0
    1.4934   -0.3207    0.0003 C   0  0
    2.7420    0.4398    0.0003 C   0  0
    2.7055    1.6752    0.0005 O   0  0
    3.9154   -0.1853    0.0002 N   0  0
    5.1236    0.5902    0.0002 C   0  0
    6.3487   -0.3396   -0.0003 C   0  0
    7.6305    0.5155   -0.0002 C   0  0
    8.8656   -0.4032   -0.0008 C   0  0
   -4.6357   -2.0958    0.0001 O   0  0
   -5.5138   -0.9408    0.0002 C   0  0
   -4.5815    0.1698    0.0003 O   0  0
   -2.2071    1.4744    0.0005 H   0  0
   -2.3215   -3.5126    0.0000 H   0  0
   -0.0377   -2.2857    0.0001 H   0  0
    0.3396    1.4280    0.0005 H   0  0
    1.5095   -1.4106    0.0001 H   0  0
    3.9588   -1.2544    0.0000 H   0  0
    5.1482    1.2191   -0.8897 H   0  0
    5.1485    1.2185    0.8906 H   0  0
    6.3297   -0.9687    0.8896 H   0  0
    6.3294   -0.9680   -0.8906 H   0  0
    7.6464    1.1447   -0.8901 H   0  0
    7.6467    1.1441    0.8901 H   0  0
    9.7707    0.2041   -0.0007 H   0  0
    8.8508   -1.0322   -0.8909 H   0  0
    8.8511   -1.0328    0.8889 H   0  0
   -6.1427   -0.9255   -0.8899 H   0  0
   -6.1427   -0.9256    0.8904 H   0  0
  1  2  2  0
  2  3  1  0
  3  4  2  0
  4  5  1  0
  5  6  2  0
  1  6  1  0
  6  7  1  0
  7  8  2  0
  8  9  1  0
  9 10  2  0
  9 11  1  0
 11 12  1  0
 12 13  1  0
 13 14  1  0
 14 15  1  0
 16 17  1  0
 17 18  1  0
  2 18  1  0
  3 16  1  0
  1 19  1  0
  4 20  1  0
  5 21  1  0
  7 22  1  0
  8 23  1  0
 11 24  1  0
 12 25  1  0
 12 26  1  0
 13 27  1  0
 13 28  1  0
 14 29  1  0
 14 30  1  0
 15 31  1  0
 15 32  1  0
 15 33  1  0
 17 34  1  0
 17 35  1  0
M  END
> <Name>
SBW2022_5e

> <Clean Energy>
12.9973

$$$$
SBW2020 - Produto - 1
  SciTegic12132405553D

 22 22  0  0  0  0            999 V2000
   -2.0847   -8.8117    0.8530 C   0  0
   -3.2881   -9.5373    0.9342 C   0  0
   -4.5207   -8.8700    0.8434 C   0  0
   -4.5481   -7.4780    0.6663 C   0  0
   -3.3431   -6.7552    0.5821 C   0  0
   -2.0787   -7.4006    0.6697 C   0  0
   -0.9121   -6.6193    0.5689 C   0  0
    0.3684   -7.0402    0.6308 C   0  0
    1.4845   -6.2085    0.5280 C   0  0
    2.8559   -6.7586    0.6064 C   0  0
    1.3618   -4.9704    0.3609 O   0  0
   -5.6819   -9.5615    0.9187 O   0  0
   -1.1361   -9.3427    0.9323 H   0  0
   -3.2634  -10.6188    1.0678 H   0  0
   -5.5025   -6.9566    0.5939 H   0  0
   -3.3799   -5.6743    0.4464 H   0  0
   -1.0605   -5.5492    0.4239 H   0  0
    0.5438   -8.1068    0.7712 H   0  0
    3.5789   -5.9493    0.5046 H   0  0
    3.0046   -7.4810   -0.1962 H   0  0
    2.9959   -7.2512    1.5686 H   0  0
   -5.7217  -10.2654    0.1406 H   0  0
  1  2  1  0
  2  3  2  0
  3  4  1  0
  4  5  2  0
  5  6  1  0
  1  6  2  0
  6  7  1  0
  8  9  1  0
  9 11  2  0
  3 12  1  0
  9 10  1  0
  7  8  2  0
  1 13  1  0
  2 14  1  0
  4 15  1  0
  5 16  1  0
  7 17  1  0
  8 18  1  0
 10 19  1  0
 10 20  1  0
 10 21  1  0
 12 22  1  0
M  END
> <Name>
SBW2020 - Produto - 1

$$$$
SBW2020 - Produto - 2
  SciTegic12132405553D

 28 28  0  0  0  0            999 V2000
   -2.3071   -1.6419    3.6154 C   0  0
   -3.4980   -2.3825    3.4757 C   0  0
   -4.7140   -1.7271    3.2099 C   0  0
   -4.7368   -0.3277    3.1044 C   0  0
   -3.5476    0.4095    3.2437 C   0  0
   -2.3019   -0.2257    3.4940 C   0  0
   -1.1451    0.5700    3.5589 C   0  0
    0.0820    0.1969    3.9729 C   0  0
    1.2094    1.0157    3.9457 C   0  0
    2.5715    0.4678    4.1767 C   0  0
    1.1099    2.2459    3.7165 O   0  0
   -5.8603   -2.4309    3.0453 O   0  0
    3.0182   -0.5234    3.0659 C   0  0
    4.3841   -1.1788    3.3630 C   0  0
   -1.3729   -2.1647    3.8203 H   0  0
   -3.4767   -3.4678    3.5740 H   0  0
   -5.6778    0.1884    2.9142 H   0  0
   -3.5824    1.4955    3.1575 H   0  0
   -1.2526    1.6062    3.2381 H   0  0
    0.2010   -0.8166    4.3560 H   0  0
    3.2791    1.2962    4.2092 H   0  0
    2.5790   -0.0548    5.1332 H   0  0
   -5.7539   -3.0894    2.2343 H   0  0
    2.2673   -1.3085    2.9773 H   0  0
    3.0901    0.0193    2.1234 H   0  0
    4.6443   -1.8607    2.5534 H   0  0
    4.3256   -1.7333    4.2996 H   0  0
    5.1482   -0.4058    3.4460 H   0  0
  1  2  1  0
  2  3  2  0
  3  4  1  0
  4  5  2  0
  5  6  1  0
  1  6  2  0
  6  7  1  0
  8  9  1  0
  9 11  2  0
  3 12  1  0
  9 10  1  0
  7  8  2  0
 10 13  1  0
 13 14  1  0
  1 15  1  0
  2 16  1  0
  4 17  1  0
  5 18  1  0
  7 19  1  0
  8 20  1  0
 10 21  1  0
 10 22  1  0
 12 23  1  0
 13 24  1  0
 13 25  1  0
 14 26  1  0
 14 27  1  0
 14 28  1  0
M  END
> <Name>
SBW2020 - Produto - 2

$$$$
SBW2020 - Produto - 3
  SciTegic12132405553D

 40 40  0  0  0  0            999 V2000
   -1.6345   -2.0047    3.3416 C   0  0
   -2.0308   -3.2616    2.8459 C   0  0
   -2.6847   -3.3544    1.6034 C   0  0
   -2.9444   -2.1871    0.8638 C   0  0
   -2.5482   -0.9349    1.3652 C   0  0
   -1.8817   -0.8112    2.6111 C   0  0
   -1.4661    0.4620    3.0280 C   0  0
   -1.0193    0.7975    4.2534 C   0  0
   -0.5366    2.0550    4.6089 C   0  0
    0.2220    2.2544    5.8713 C   0  0
   -0.7289    3.0524    3.8716 O   0  0
   -3.0501   -4.5604    1.1076 O   0  0
    1.5674    1.4768    5.9017 C   0  0
    2.2970    1.5993    7.2669 C   0  0
    3.6085    0.7702    7.3091 C   0  0
    4.3655    0.8869    8.6614 C   0  0
    5.6879    0.0723    8.6751 C   0  0
    6.4542    0.2062   10.0093 C   0  0
   -1.1280   -1.9460    4.3050 H   0  0
   -1.8310   -4.1632    3.4249 H   0  0
   -3.4528   -2.2531   -0.0981 H   0  0
   -2.7582   -0.0378    0.7827 H   0  0
   -1.5090    1.2594    2.2861 H   0  0
   -1.0367    0.0275    5.0247 H   0  0
    0.4331    3.3177    5.9851 H   0  0
   -0.3941    1.9146    6.7038 H   0  0
   -2.1981   -5.1620    0.9857 H   0  0
    1.3662    0.4234    5.7068 H   0  0
    2.2174    1.8734    5.1218 H   0  0
    2.5391    2.6475    7.4423 H   0  0
    1.6316    1.2431    8.0533 H   0  0
    3.3608   -0.2778    7.1406 H   0  0
    4.2655    1.1213    6.5134 H   0  0
    3.7188    0.5167    9.4569 H   0  0
    4.5996    1.9361    8.8414 H   0  0
    5.4517   -0.9793    8.5124 H   0  0
    6.3270    0.4308    7.8681 H   0  0
    7.3700   -0.3831    9.9636 H   0  0
    5.8296   -0.1566   10.8256 H   0  0
    6.7046    1.2530   10.1816 H   0  0
  1  2  1  0
  2  3  2  0
  3  4  1  0
  4  5  2  0
  5  6  1  0
  1  6  2  0
  6  7  1  0
  8  9  1  0
  9 11  2  0
  3 12  1  0
  9 10  1  0
  7  8  2  0
 10 13  1  0
 13 14  1  0
 14 15  1  0
 16 17  1  0
 17 18  1  0
 15 16  1  0
  1 19  1  0
  2 20  1  0
  4 21  1  0
  5 22  1  0
  7 23  1  0
  8 24  1  0
 10 25  1  0
 10 26  1  0
 12 27  1  0
 13 28  1  0
 13 29  1  0
 14 30  1  0
 14 31  1  0
 15 32  1  0
 15 33  1  0
 16 34  1  0
 16 35  1  0
 17 36  1  0
 17 37  1  0
 18 38  1  0
 18 39  1  0
 18 40  1  0
M  END
> <Name>
SBW2020 - Produto - 3

$$$$
SBW2020 - Produto - 4
  SciTegic12132405553D

 39 39  0  0  0  0            999 V2000
   -4.1116    0.6476   -0.0002 C   0  0
   -5.4095    1.3275   -0.0004 C   0  0
   -5.4640    2.6585   -0.0001 C   0  0
   -4.2258    3.4424    0.0003 C   0  0
   -3.0458    2.8241    0.0004 C   0  0
   -2.9857    1.3603    0.0001 C   0  0
   -1.6882    0.6833    0.0003 C   0  0
   -1.6290   -0.6472    0.0001 C   0  0
   -0.3329   -1.3295    0.0002 C   0  0
    0.9412   -0.5331    0.0003 C   0  0
   -0.2876   -2.5648    0.0001 O   0  0
    2.1462   -1.4913    0.0001 C   0  0
    3.4495   -0.6737    0.0002 C   0  0
    4.6568   -1.6285    0.0001 C   0  0
    5.9579   -0.8058    0.0001 C   0  0
    7.1684   -1.7567    0.0001 C   0  0
    8.4685   -0.9316    0.0002 C   0  0
   -4.0671   -0.4415   -0.0005 H   0  0
   -6.3304    0.7443   -0.0007 H   0  0
   -6.4295    3.1645   -0.0002 H   0  0
   -4.2703    4.5315    0.0005 H   0  0
   -2.1250    3.4073    0.0007 H   0  0
   -0.7689    1.2689    0.0005 H   0  0
   -2.5494   -1.2311   -0.0001 H   0  0
    0.9767    0.0951   -0.8898 H   0  0
    0.9767    0.0949    0.8905 H   0  0
    2.1111   -2.1195    0.8902 H   0  0
    2.1111   -2.1194   -0.8901 H   0  0
    3.4838   -0.0454   -0.8899 H   0  0
    3.4838   -0.0456    0.8904 H   0  0
    4.6236   -2.2568    0.8901 H   0  0
    4.6236   -2.2566   -0.8902 H   0  0
    5.9899   -0.1777    0.8903 H   0  0
    5.9899   -0.1775   -0.8899 H   0  0
    7.1368   -2.3851    0.8901 H   0  0
    7.1369   -2.3849   -0.8901 H   0  0
    9.3263   -1.6041    0.0001 H   0  0
    8.5004   -0.3030    0.8901 H   0  0
    8.5004   -0.3028   -0.8896 H   0  0
  1  2  1  0
  2  3  2  0
  3  4  1  0
  4  5  2  0
  5  6  1  0
  1  6  2  0
  6  7  1  0
  8  9  1  0
  9 11  2  0
  9 10  1  0
  7  8  2  0
 10 12  1  0
 12 13  1  0
 13 14  1  0
 15 16  1  0
 16 17  1  0
 14 15  1  0
  1 18  1  0
  2 19  1  0
  3 20  1  0
  4 21  1  0
  5 22  1  0
  7 23  1  0
  8 24  1  0
 10 25  1  0
 10 26  1  0
 12 27  1  0
 12 28  1  0
 13 29  1  0
 13 30  1  0
 14 31  1  0
 14 32  1  0
 15 33  1  0
 15 34  1  0
 16 35  1  0
 16 36  1  0
 17 37  1  0
 17 38  1  0
 17 39  1  0
M  END
> <Name>
SBW2020 - Produto - 4

> <Clean Energy>
-2.22597

$$$$
SBW2020 - Produto - 5
  SciTegic12132405553D

 43 43  0  0  0  0            999 V2000
   -3.9987   -0.8465    5.2510 C   0  0
   -4.9633   -1.7297    4.7381 C   0  0
   -6.2905   -1.3043    4.5517 C   0  0
   -6.6541   -0.0033    4.9477 C   0  0
   -5.6867    0.8775    5.4706 C   0  0
   -4.3312    0.4832    5.6251 C   0  0
   -3.3880    1.4132    6.1016 C   0  0
   -2.1118    1.1435    6.4453 C   0  0
   -1.1557    2.0785    6.8323 C   0  0
    0.2806    1.6944    6.9413 C   0  0
   -1.4753    3.2652    7.0872 O   0  0
    0.8762    1.2563    5.5683 C   0  0
    2.3416    0.7556    5.6564 C   0  0
    2.9058    0.2925    4.2822 C   0  0
    4.3850   -0.1697    4.3834 C   0  0
    4.9953   -0.6064    3.0243 C   0  0
    6.4738   -1.0410    3.1580 C   0  0
   -7.2161   -2.1557    4.0087 O   0  0
   -7.2374   -2.1133    2.5689 C   0  0
   -2.9704   -1.1896    5.3647 H   0  0
   -4.6811   -2.7512    4.4830 H   0  0
   -7.6891    0.3242    4.8493 H   0  0
   -5.9854    1.8841    5.7631 H   0  0
   -3.7195    2.4467    6.2021 H   0  0
   -1.8010    0.0991    6.4175 H   0  0
    0.8457    2.5492    7.3128 H   0  0
    0.3704    0.8658    7.6438 H   0  0
    0.2608    0.4508    5.1675 H   0  0
    0.8443    2.1099    4.8912 H   0  0
    2.9645    1.5672    6.0325 H   0  0
    2.3810   -0.0846    6.3496 H   0  0
    2.3024   -0.5384    3.9167 H   0  0
    2.8447    1.1234    3.5793 H   0  0
    4.4355   -1.0142    5.0707 H   0  0
    4.9775    0.6560    4.7774 H   0  0
    4.4176   -1.4442    2.6337 H   0  0
    4.9376    0.2310    2.3289 H   0  0
    6.8557   -1.3373    2.1811 H   0  0
    6.5446   -1.8835    3.8460 H   0  0
    7.0644   -0.2089    3.5413 H   0  0
   -7.9896   -2.8081    2.1955 H   0  0
   -6.2584   -2.3962    2.1820 H   0  0
   -7.4804   -1.1035    2.2382 H   0  0
  1  2  1  0
  2  3  2  0
  3  4  1  0
  4  5  2  0
  5  6  1  0
  1  6  2  0
  6  7  1  0
  8  9  1  0
  9 11  2  0
  9 10  1  0
  7  8  2  0
 10 12  1  0
 12 13  1  0
 13 14  1  0
 15 16  1  0
 16 17  1  0
 14 15  1  0
  3 18  1  0
 18 19  1  0
  1 20  1  0
  2 21  1  0
  4 22  1  0
  5 23  1  0
  7 24  1  0
  8 25  1  0
 10 26  1  0
 10 27  1  0
 12 28  1  0
 12 29  1  0
 13 30  1  0
 13 31  1  0
 14 32  1  0
 14 33  1  0
 15 34  1  0
 15 35  1  0
 16 36  1  0
 16 37  1  0
 17 38  1  0
 17 39  1  0
 17 40  1  0
 19 41  1  0
 19 42  1  0
 19 43  1  0
M  END
> <Name>
SBW2020 - Produto - 5

> <Clean Energy>
JPSF2020 - Produto - 1

$$$$
Molecule
  DSViewer          3D                             0

 27 29  0  0  0  0  0  0  0  0999 V2000
   -5.3238    2.4403   -0.0874 C   0  0
   -6.4032    1.6738   -0.1224 C   0  0
   -6.3180    0.2199   -0.0717 C   0  0
   -5.1199   -0.3694   -0.0193 C   0  0
   -3.8893    0.4445    0.0146 C   0  0
   -3.9771    1.7767   -0.0421 C   0  0
   -2.8689    2.5128   -0.0259 O   0  0
   -2.5549   -0.2171    0.0382 C   0  0
   -1.4407    0.5217    0.0324 C   0  0
   -1.6491    2.0080   -0.0128 C   0  0
   -5.5578    3.8663   -0.1332 O   0  0
   -7.5821   -0.6416   -0.1323 C   0  0
   -8.9134    0.1629   -0.3823 C   0  0
   -9.3996    0.9691    0.8583 C   0  0
   -0.0758   -0.2292    0.0506 C   0  0
   -0.7380    2.8252   -0.0403 O   0  0
    1.3239    0.3918    0.0376 C   0  0
    2.5109   -0.4868    0.0257 C   0  0
    3.7387    0.0460    0.0114 C   0  0
    3.9043    1.5090    0.0089 C   0  0
    2.8371    2.2871    0.0213 C   0  0
    1.5263    1.7010    0.0357 C   0  0
   -0.1269   -1.4646    0.0667 O   0  0
   -4.4165    4.7369   -0.1041 C   0  0
    5.1616    2.1016   -0.0058 N   0  0
    5.2365    3.0975   -0.0069 H   0  0
    5.9773    1.5428   -0.0154 H   0  0
  8  9  2  0  0  0
  9 10  1  0  0  0
  7 10  1  0  0  0
  5  8  1  0  0  0
  7  6  1  0  0  0
  1  2  2  0  0  0
  2  3  1  0  0  0
  3  4  2  0  0  0
  4  5  1  0  0  0
  1  6  1  0  0  0
  5  6  2  0  0  0
  1 11  1  0  0  0
  3 12  1  0  0  0
 12 13  1  0  0  0
 13 14  1  0  0  0
  9 15  1  0  0  0
 10 16  2  0  0  0
 15 17  1  0  0  0
 18 19  2  0  0  0
 19 20  1  0  0  0
 20 21  2  0  0  0
 21 22  1  0  0  0
 17 18  1  0  0  0
 17 22  2  0  0  0
 15 23  2  0  0  0
 11 24  1  0  0  0
 20 25  1  0  0  0
 25 26  1  0  0  0
 25 27  1  0  0  0
M  END
> <Clean Energy>
44370.7

$$$$

  SciTegic12132405552D

 26 28  0  0  0  0            999 V2000
   -3.6458    1.9101    0.0000 C   0  0
   -4.3603    1.4976    0.0000 C   0  0
   -4.3603    0.6726    0.0000 C   0  0
   -3.6458    0.2601    0.0000 C   0  0
   -2.9314    0.6726    0.0000 C   0  0
   -2.9314    1.4976    0.0000 C   0  0
   -2.2169    1.9101    0.0000 O   0  0
   -2.2169    0.2601    0.0000 C   0  0
   -1.5024    0.6726    0.0000 C   0  0
   -1.5024    1.4976    0.0000 C   0  0
   -3.6458    2.7351    0.0000 O   0  0
   -5.0748    0.2601    0.0000 C   0  0
   -5.7892    0.6726    0.0000 C   0  0
   -5.7892    1.4976    0.0000 C   0  0
   -0.7880    0.2601    0.0000 C   0  0
   -0.7880    1.9101    0.0000 O   0  0
   -0.0735    0.6726    0.0000 C   0  0
    0.6410    0.2601    0.0000 C   0  0
    1.3555    0.6726    0.0000 C   0  0
    1.3555    1.4976    0.0000 C   0  0
    0.6410    1.9101    0.0000 C   0  0
   -0.0735    1.4976    0.0000 C   0  0
    2.0699    1.9101    0.0000 N   0  3
   -0.7880   -0.5649    0.0000 O   0  0
    2.0699    2.7351    0.0000 O   0  5
    2.7844    1.4976    0.0000 O   0  0
  8  9  2  0
  9 10  1  0
  7 10  1  0
  5  8  1  0
  7  6  1  0
  1  2  2  0
  2  3  1  0
  3  4  2  0
  4  5  1  0
  1  6  1  0
  5  6  2  0
  1 11  1  0
  3 12  1  0
 12 13  1  0
 13 14  1  0
  9 15  1  0
 10 16  2  0
 15 17  1  0
 18 19  2  0
 19 20  1  0
 20 21  2  0
 21 22  1  0
 17 18  1  0
 17 22  2  0
 20 23  1  0
 15 24  2  0
 23 25  1  0
 23 26  2  0
M  CHG  2  23   1  25  -1
M  STY  1   1 SUP
M  SLB  1   1   1
M  SAL   1  3  23  25  26
M  SBL   1  1  25
M  SMT   1 NO2
M  SAP   1  1  23  20  1
M  END
$$$$

  SciTegic12132405552D

 27 29  0  0  0  0            999 V2000
   -3.6458    1.9101    0.0000 C   0  0
   -4.3603    1.4976    0.0000 C   0  0
   -4.3603    0.6726    0.0000 C   0  0
   -3.6458    0.2601    0.0000 C   0  0
   -2.9314    0.6726    0.0000 C   0  0
   -2.9314    1.4976    0.0000 C   0  0
   -2.2169    1.9101    0.0000 O   0  0
   -2.2169    0.2601    0.0000 C   0  0
   -1.5024    0.6726    0.0000 C   0  0
   -1.5024    1.4976    0.0000 C   0  0
   -3.6458    2.7351    0.0000 O   0  0
   -5.0748    0.2601    0.0000 C   0  0
   -5.7892    0.6726    0.0000 C   0  0
   -5.7892    1.4976    0.0000 C   0  0
   -0.7880    0.2601    0.0000 C   0  0
   -0.7880    1.9101    0.0000 O   0  0
   -0.0735    0.6726    0.0000 C   0  0
    0.6410    0.2601    0.0000 C   0  0
    1.3555    0.6726    0.0000 C   0  0
    1.3555    1.4976    0.0000 C   0  0
    0.6410    1.9101    0.0000 C   0  0
   -0.0735    1.4976    0.0000 C   0  0
    2.0699    1.9101    0.0000 N   0  3
   -4.3603    3.1476    0.0000 C   0  0
   -0.7880   -0.5649    0.0000 O   0  0
    2.0699    2.7351    0.0000 O   0  5
    2.7844    1.4976    0.0000 O   0  0
  8  9  2  0
  9 10  1  0
  7 10  1  0
  5  8  1  0
  7  6  1  0
  1  2  2  0
  2  3  1  0
  3  4  2  0
  4  5  1  0
  1  6  1  0
  5  6  2  0
  1 11  1  0
  3 12  1  0
 12 13  1  0
 13 14  1  0
  9 15  1  0
 10 16  2  0
 15 17  1  0
 18 19  2  0
 19 20  1  0
 20 21  2  0
 21 22  1  0
 17 18  1  0
 17 22  2  0
 20 23  1  0
 11 24  1  0
 15 25  1  0
 23 26  1  0
 23 27  2  0
M  CHG  2  23   1  26  -1
M  STY  1   1 SUP
M  SLB  1   1   1
M  SAL   1  3  23  26  27
M  SBL   1  1  25
M  SMT   1 NO2
M  SAP   1  1  23  20  1
M  END
$$$$

  SciTegic12132405552D

 19 20  0  0  0  0            999 V2000
   -3.6458    1.9101    0.0000 C   0  0
   -4.3603    1.4976    0.0000 C   0  0
   -4.3603    0.6726    0.0000 C   0  0
   -3.6458    0.2601    0.0000 C   0  0
   -2.9314    0.6726    0.0000 C   0  0
   -2.9314    1.4976    0.0000 C   0  0
   -2.2169    1.9101    0.0000 O   0  0
   -2.2169    0.2601    0.0000 C   0  0
   -1.5024    0.6726    0.0000 C   0  0
   -1.5024    1.4976    0.0000 C   0  0
   -3.6458    2.7351    0.0000 O   0  0
   -2.9314    3.1476    0.0000 C   0  0
   -5.0748    0.2601    0.0000 C   0  0
   -5.7892    0.6726    0.0000 C   0  0
   -5.7892    1.4976    0.0000 C   0  0
   -0.7880    0.2601    0.0000 C   0  0
   -0.0735    0.6726    0.0000 O   0  0
   -0.7880   -0.5649    0.0000 O   0  0
   -0.7880    1.9101    0.0000 O   0  0
  8  9  2  0
  9 10  1  0
  7 10  1  0
  5  8  1  0
  7  6  1  0
  1  2  2  0
  2  3  1  0
  3  4  2  0
  4  5  1  0
  1  6  1  0
  5  6  2  0
  1 11  1  0
 11 12  1  0
  3 13  1  0
 13 14  1  0
 14 15  1  0
  9 16  1  0
 16 17  1  0
 16 18  2  0
 10 19  2  0
M  END
$$$$

  SciTegic12132405552D

 27 29  0  0  0  0            999 V2000
   -3.6458    1.9101    0.0000 C   0  0
   -4.3603    1.4976    0.0000 C   0  0
   -4.3603    0.6726    0.0000 C   0  0
   -3.6458    0.2601    0.0000 C   0  0
   -2.9314    0.6726    0.0000 C   0  0
   -2.9314    1.4976    0.0000 C   0  0
   -2.2169    1.9101    0.0000 O   0  0
   -2.2169    0.2601    0.0000 C   0  0
   -1.5024    0.6726    0.0000 C   0  0
   -1.5024    1.4976    0.0000 C   0  0
   -3.6458    2.7351    0.0000 O   0  0
   -5.0748    0.2601    0.0000 C   0  0
   -5.7892    0.6726    0.0000 C   0  0
   -5.7892    1.4976    0.0000 C   0  0
   -0.7880    0.2601    0.0000 C   0  0
   -0.7880    1.9101    0.0000 O   0  0
   -0.0735    0.6726    0.0000 C   0  0
    0.6410    0.2601    0.0000 C   0  0
    1.3555    0.6726    0.0000 C   0  0
    1.3555    1.4976    0.0000 C   0  0
    0.6410    1.9101    0.0000 C   0  0
   -0.0735    1.4976    0.0000 C   0  0
    2.0699    1.9101    0.0000 N   0  3
   -0.7880   -0.5649    0.0000 O   0  0
   -2.9314    3.1476    0.0000 C   0  0
    2.0699    2.7351    0.0000 O   0  5
    2.7844    1.4976    0.0000 O   0  0
  8  9  2  0
  9 10  1  0
  7 10  1  0
  5  8  1  0
  7  6  1  0
  1  2  2  0
  2  3  1  0
  3  4  2  0
  4  5  1  0
  1  6  1  0
  5  6  2  0
  1 11  1  0
  3 12  1  0
 12 13  1  0
 13 14  1  0
  9 15  1  0
 10 16  2  0
 15 17  1  0
 18 19  2  0
 19 20  1  0
 20 21  2  0
 21 22  1  0
 17 18  1  0
 17 22  2  0
 20 23  1  0
 15 24  2  0
 11 25  1  0
 23 26  1  0
 23 27  2  0
M  CHG  2  23   1  26  -1
M  STY  1   1 SUP
M  SLB  1   1   1
M  SAL   1  3  23  26  27
M  SBL   1  1  25
M  SMT   1 NO2
M  SAP   1  1  23  20  1
M  END
$$$$
Molecule
  DSViewer          3D                             0

 20 20  0  0  0  0  0  0  0  0999 V2000
   -6.2661    1.0046    0.0008 C   0  0
   -7.5843    0.3380   -0.0032 C   0  0
   -7.6172   -1.0189    0.0025 C   0  0
   -6.3535   -1.7703   -0.0003 C   0  0
   -5.1809   -1.1447    0.0015 C   0  0
   -5.1344    0.3041   -0.0008 C   0  0
   -3.8394    0.9925   -0.0000 C   0  0
   -3.7974    2.2281   -0.0005 O   0  0
   -2.6556    0.2471    0.0004 O   0  0
   -1.5125    1.1176    0.0002 C   0  0
   -0.2210    0.2672    0.0004 C   0  0
    1.0233    1.1841    0.0001 C   0  0
    2.3030    0.3169    0.0003 C   0  0
    3.5534    1.2223   -0.0000 C   0  0
    4.8253    0.3477    0.0002 C   0  0
    6.0758    1.2498   -0.0000 C   0  0
    7.3446    0.3748    0.0002 C   0  0
   -8.7922   -1.7765   -0.0003 O   0  0
   -8.7321    1.2320   -0.0003 O   0  0
  -10.0533    0.6679   -0.0012 C   0  0
  1  2  1  0  0  0
  2  3  2  0  0  0
  3  4  1  0  0  0
  4  5  2  0  0  0
  5  6  1  0  0  0
  1  6  2  0  0  0
  6  7  1  0  0  0
  7  8  2  0  0  0
  7  9  1  0  0  0
  9 10  1  0  0  0
 10 11  1  0  0  0
 11 12  1  0  0  0
 12 13  1  0  0  0
 13 14  1  0  0  0
 14 15  1  0  0  0
 15 16  1  0  0  0
 16 17  1  0  0  0
  3 18  1  0  0  0
  2 19  1  0  0  0
 19 20  1  0  0  0
M  END
> <Clean Energy>
270775

$$$$

  SciTegic12132405552D

 18 18  0  0  0  0            999 V2000
   -4.7743    0.7816    0.0000 C   0  0
   -5.4888    0.3691    0.0000 C   0  0
   -5.4888   -0.4559    0.0000 C   0  0
   -4.7743   -0.8684    0.0000 C   0  0
   -4.0598   -0.4559    0.0000 C   0  0
   -4.0598    0.3691    0.0000 C   0  0
   -3.3454    0.7816    0.0000 C   0  0
   -2.6309    0.3691    0.0000 N   0  0
   -1.9164    0.7816    0.0000 C   0  0
   -1.2020    0.3691    0.0000 C   0  0
   -0.4875    0.7816    0.0000 C   0  0
    0.2270    0.3691    0.0000 C   0  0
    0.9415    0.7816    0.0000 C   0  0
    1.6559    0.3691    0.0000 C   0  0
    2.3704    0.7816    0.0000 C   0  0
    3.0849    0.3691    0.0000 C   0  0
   -6.2032   -0.8684    0.0000 O   0  0
   -6.9177   -0.4559    0.0000 C   0  0
  1  2  1  0
  2  3  2  0
  3  4  1  0
  4  5  2  0
  5  6  1  0
  1  6  2  0
  6  7  1  0
  7  8  1  0
  8  9  1  0
  9 10  1  0
 10 11  1  0
 11 12  1  0
 12 13  1  0
 13 14  1  0
 14 15  1  0
 15 16  1  0
  3 17  1  0
 17 18  1  0
M  END
$$$$

  SciTegic12132405552D

 19 19  0  0  0  0            999 V2000
   -4.7743    0.7816    0.0000 C   0  0
   -5.4888    0.3691    0.0000 C   0  0
   -5.4888   -0.4559    0.0000 C   0  0
   -4.7743   -0.8684    0.0000 C   0  0
   -4.0598   -0.4559    0.0000 C   0  0
   -4.0598    0.3691    0.0000 C   0  0
   -3.3454    0.7816    0.0000 C   0  0
   -2.6309    0.3691    0.0000 N   0  0
   -1.9164    0.7816    0.0000 C   0  0
   -1.2020    0.3691    0.0000 C   0  0
   -0.4875    0.7816    0.0000 C   0  0
    0.2270    0.3691    0.0000 C   0  0
    0.9415    0.7816    0.0000 C   0  0
    1.6559    0.3691    0.0000 C   0  0
    2.3704    0.7816    0.0000 C   0  0
    3.0849    0.3691    0.0000 C   0  0
   -6.2032   -0.8684    0.0000 O   0  0
   -6.9177   -0.4559    0.0000 C   0  0
   -3.3454    1.6066    0.0000 O   0  0
  1  2  1  0
  2  3  2  0
  3  4  1  0
  4  5  2  0
  5  6  1  0
  1  6  2  0
  6  7  1  0
  7  8  1  0
  8  9  1  0
  9 10  1  0
 10 11  1  0
 11 12  1  0
 12 13  1  0
 13 14  1  0
 14 15  1  0
 15 16  1  0
  3 17  1  0
 17 18  1  0
  7 19  2  0
M  END
$$$$

  SciTegic12132405552D

 17 17  0  0  0  0            999 V2000
   -4.7743    0.7816    0.0000 C   0  0
   -5.4888    0.3691    0.0000 C   0  0
   -5.4888   -0.4559    0.0000 C   0  0
   -4.7743   -0.8684    0.0000 C   0  0
   -4.0598   -0.4559    0.0000 C   0  0
   -4.0598    0.3691    0.0000 C   0  0
   -3.3454    0.7816    0.0000 C   0  0
   -3.3454    1.6066    0.0000 O   0  0
   -2.6309    0.3691    0.0000 O   0  0
   -1.9164    0.7816    0.0000 C   0  0
   -1.2020    0.3691    0.0000 C   0  0
   -0.4875    0.7816    0.0000 C   0  0
    0.2270    0.3691    0.0000 C   0  0
    0.9415    0.7816    0.0000 C   0  0
    1.6559    0.3691    0.0000 C   0  0
    2.3704    0.7816    0.0000 C   0  0
    3.0849    0.3691    0.0000 C   0  0
  1  2  1  0
  2  3  2  0
  3  4  1  0
  4  5  2  0
  5  6  1  0
  1  6  2  0
  6  7  1  0
  7  8  2  0
  7  9  1  0
  9 10  1  0
 10 11  1  0
 11 12  1  0
 12 13  1  0
 13 14  1  0
 14 15  1  0
 15 16  1  0
 16 17  1  0
M  END
$$$$

  SciTegic12132405552D

 19 19  0  0  0  0            999 V2000
   -4.7743    0.7816    0.0000 C   0  0
   -5.4888    0.3691    0.0000 C   0  0
   -5.4888   -0.4559    0.0000 C   0  0
   -4.7743   -0.8684    0.0000 C   0  0
   -4.0598   -0.4559    0.0000 C   0  0
   -4.0598    0.3691    0.0000 C   0  0
   -3.3454    0.7816    0.0000 C   0  0
   -3.3454    1.6066    0.0000 O   0  0
   -2.6309    0.3691    0.0000 O   0  0
   -1.9164    0.7816    0.0000 C   0  0
   -1.2020    0.3691    0.0000 C   0  0
   -0.4875    0.7816    0.0000 C   0  0
    0.2270    0.3691    0.0000 C   0  0
    0.9415    0.7816    0.0000 C   0  0
    1.6559    0.3691    0.0000 C   0  0
    2.3704    0.7816    0.0000 C   0  0
    3.0849    0.3691    0.0000 C   0  0
   -6.2032   -0.8684    0.0000 O   0  0
   -6.9177   -0.4559    0.0000 C   0  0
  1  2  1  0
  2  3  2  0
  3  4  1  0
  4  5  2  0
  5  6  1  0
  1  6  2  0
  6  7  1  0
  7  8  2  0
  7  9  1  0
  9 10  1  0
 10 11  1  0
 11 12  1  0
 12 13  1  0
 13 14  1  0
 14 15  1  0
 15 16  1  0
 16 17  1  0
  3 18  1  0
 18 19  1  0
M  END
$$$$
Molecule
  DSViewer          3D                             0

 18 18  0  0  0  0  0  0  0  0999 V2000
   -5.8022    2.5311   -0.0002 C   0  0
   -7.0917    1.8404   -0.0000 C   0  0
   -7.1387    0.5079    0.0005 C   0  0
   -5.8870   -0.2626    0.0008 C   0  0
   -4.7120    0.3674    0.0007 C   0  0
   -4.6672    1.8314    0.0002 C   0  0
   -3.3869    2.5424    0.0000 C   0  0
   -2.2784    1.9177    0.0003 N   0  0
   -1.0591    2.6820    0.0001 C   0  0
    0.1775    1.7616    0.0003 C   0  0
    1.4433    2.6466    0.0000 C   0  0
    2.7139    1.7749    0.0002 C   0  0
    3.9532    2.6939   -0.0002 C   0  0
    5.2374    1.8436   -0.0001 C   0  0
    6.4665    2.7737   -0.0005 C   0  0
    7.7540    1.9285   -0.0004 C   0  0
   -8.3719   -0.1725    0.0006 O   0  0
   -9.4798    0.7447    0.0002 C   0  0
  1  2  1  0  0  0
  2  3  2  0  0  0
  3  4  1  0  0  0
  4  5  2  0  0  0
  5  6  1  0  0  0
  1  6  2  0  0  0
  6  7  1  0  0  0
  7  8  2  0  0  0
  8  9  1  0  0  0
  9 10  1  0  0  0
 10 11  1  0  0  0
 11 12  1  0  0  0
 12 13  1  0  0  0
 13 14  1  0  0  0
 14 15  1  0  0  0
 15 16  1  0  0  0
  3 17  1  0  0  0
 17 18  1  0  0  0
M  END
> <Clean Energy>
1030.4

$$$$

  SciTegic12132405552D

 16 16  0  0  0  0            999 V2000
   -4.1667    2.2139    0.0000 C   0  0
   -4.8811    1.8014    0.0000 C   0  0
   -4.8811    0.9764    0.0000 C   0  0
   -4.1667    0.5639    0.0000 C   0  0
   -3.4522    0.9764    0.0000 C   0  0
   -3.4522    1.8014    0.0000 C   0  0
   -2.7377    2.2139    0.0000 C   0  0
   -2.0233    1.8014    0.0000 N   0  0
   -1.3088    2.2139    0.0000 C   0  0
   -0.5943    1.8014    0.0000 C   0  0
    0.1202    2.2139    0.0000 C   0  0
    0.8346    1.8014    0.0000 C   0  0
    1.5491    2.2139    0.0000 C   0  0
    2.2636    1.8014    0.0000 C   0  0
    2.9780    2.2139    0.0000 C   0  0
    3.6925    1.8014    0.0000 C   0  0
  1  2  1  0
  2  3  2  0
  3  4  1  0
  4  5  2  0
  5  6  1  0
  1  6  2  0
  6  7  1  0
  8  9  1  0
  9 10  1  0
 10 11  1  0
 11 12  1  0
 12 13  1  0
 13 14  1  0
 14 15  1  0
 15 16  1  0
  7  8  1  0
M  END
$$$$

  SciTegic12132405552D

 17 17  0  0  0  0            999 V2000
   -4.1667    2.2139    0.0000 C   0  0
   -4.8811    1.8014    0.0000 C   0  0
   -4.8811    0.9764    0.0000 C   0  0
   -4.1667    0.5639    0.0000 C   0  0
   -3.4522    0.9764    0.0000 C   0  0
   -3.4522    1.8014    0.0000 C   0  0
   -2.7377    2.2139    0.0000 C   0  0
   -2.0233    1.8014    0.0000 N   0  0
   -1.3088    2.2139    0.0000 C   0  0
   -0.5943    1.8014    0.0000 C   0  0
    0.1202    2.2139    0.0000 C   0  0
    0.8346    1.8014    0.0000 C   0  0
    1.5491    2.2139    0.0000 C   0  0
    2.2636    1.8014    0.0000 C   0  0
    2.9780    2.2139    0.0000 C   0  0
    3.6925    1.8014    0.0000 C   0  0
   -2.7377    3.0389    0.0000 O   0  0
  1  2  1  0
  2  3  2  0
  3  4  1  0
  4  5  2  0
  5  6  1  0
  1  6  2  0
  6  7  1  0
  8  9  1  0
  9 10  1  0
 10 11  1  0
 11 12  1  0
 12 13  1  0
 13 14  1  0
 14 15  1  0
 15 16  1  0
  7  8  1  0
  7 17  2  0
M  END
$$$$

  SciTegic12132405552D

 19 19  0  0  0  0            999 V2000
   -4.1667    2.2139    0.0000 C   0  0
   -4.8811    1.8014    0.0000 C   0  0
   -4.8811    0.9764    0.0000 C   0  0
   -4.1667    0.5639    0.0000 C   0  0
   -3.4522    0.9764    0.0000 C   0  0
   -3.4522    1.8014    0.0000 C   0  0
   -2.7377    2.2139    0.0000 C   0  0
   -2.0233    1.8014    0.0000 C   0  0
   -1.3088    2.2139    0.0000 C   0  0
   -0.5943    1.8014    0.0000 C   0  0
    0.1202    2.2139    0.0000 C   0  0
    0.8346    1.8014    0.0000 C   0  0
    1.5491    2.2139    0.0000 C   0  0
    2.2636    1.8014    0.0000 C   0  0
    2.9780    2.2139    0.0000 C   0  0
    3.6925    1.8014    0.0000 C   0  0
   -1.3088    3.0389    0.0000 O   0  0
   -5.5956    0.5639    0.0000 O   0  0
   -6.3101    0.9764    0.0000 C   0  0
  1  2  1  0
  2  3  2  0
  3  4  1  0
  4  5  2  0
  5  6  1  0
  1  6  2  0
  6  7  1  0
  8  9  1  0
  9 10  1  0
 10 11  1  0
 11 12  1  0
 12 13  1  0
 13 14  1  0
 14 15  1  0
 15 16  1  0
  7  8  2  0
  9 17  2  0
  3 18  1  0
 18 19  1  0
M  END
$$$$

  SciTegic12132405552D

 16 16  0  0  0  0            999 V2000
   -4.1667    2.2139    0.0000 C   0  0
   -4.8811    1.8014    0.0000 C   0  0
   -4.8811    0.9764    0.0000 C   0  0
   -4.1667    0.5639    0.0000 C   0  0
   -3.4522    0.9764    0.0000 C   0  0
   -3.4522    1.8014    0.0000 C   0  0
   -2.7377    2.2139    0.0000 C   0  0
   -2.0233    1.8014    0.0000 N   0  0
   -1.3088    2.2139    0.0000 C   0  0
   -0.5943    1.8014    0.0000 C   0  0
    0.1202    2.2139    0.0000 C   0  0
    0.8346    1.8014    0.0000 C   0  0
    1.5491    2.2139    0.0000 C   0  0
    2.2636    1.8014    0.0000 C   0  0
    2.9780    2.2139    0.0000 C   0  0
    3.6925    1.8014    0.0000 C   0  0
  1  2  1  0
  2  3  2  0
  3  4  1  0
  4  5  2  0
  5  6  1  0
  1  6  2  0
  6  7  1  0
  7  8  2  0
  8  9  1  0
  9 10  1  0
 10 11  1  0
 11 12  1  0
 12 13  1  0
 13 14  1  0
 14 15  1  0
 15 16  1  0
M  END
$$$$
Molecule
  DSViewer          3D                             0

 10 10  0  0  0  0  0  0  0  0999 V2000
   -1.5105    1.5871   -0.0005 N   0  0
   -2.7416    0.9213   -0.0006 C   0  0
   -2.7777   -0.4107   -0.0002 C   0  0
   -1.5838   -1.1430    0.0004 N   0  0
   -0.4642   -0.5398    0.0005 C   0  0
   -0.4259    0.9234    0.0001 C   0  0
    0.8563    1.6202    0.0002 C   0  0
    0.8860    2.8562   -0.0002 O   0  0
    2.0424    0.8902    0.0008 O   0  0
    3.1597    1.7832    0.0008 C   0  0
  1  2  1  0  0  0
  2  3  2  0  0  0
  3  4  1  0  0  0
  4  5  2  0  0  0
  5  6  1  0  0  0
  1  6  2  0  0  0
  6  7  1  0  0  0
  7  8  2  0  0  0
  7  9  1  0  0  0
  9 10  1  0  0  0
M  END
> <Clean Energy>
14016

$$$$

  SciTegic12132405552D

 11 11  0  0  0  0            999 V2000
   -1.0417    1.3024    0.0000 N   0  0
   -1.7561    0.8899    0.0000 C   0  0
   -1.7561    0.0649    0.0000 C   0  0
   -1.0417   -0.3476    0.0000 N   0  0
   -0.3272    0.0649    0.0000 C   0  0
   -0.3272    0.8899    0.0000 C   0  0
    0.3873    1.3024    0.0000 C   0  0
    0.3873    2.1274    0.0000 O   0  0
    1.1017    0.8899    0.0000 O   0  0
    1.8162    1.3024    0.0000 C   0  0
    2.5307    0.8899    0.0000 C   0  0
  1  2  1  0
  2  3  2  0
  3  4  1  0
  4  5  2  0
  5  6  1  0
  1  6  2  0
  6  7  1  0
  7  8  2  0
  7  9  1  0
  9 10  1  0
 10 11  1  0
M  END
$$$$

  SciTegic12132405552D

 12 12  0  0  0  0            999 V2000
   -1.0417    1.3024    0.0000 N   0  0
   -1.7561    0.8899    0.0000 C   0  0
   -1.7561    0.0649    0.0000 C   0  0
   -1.0417   -0.3476    0.0000 N   0  0
   -0.3272    0.0649    0.0000 C   0  0
   -0.3272    0.8899    0.0000 C   0  0
    0.3873    1.3024    0.0000 C   0  0
    0.3873    2.1274    0.0000 O   0  0
    1.1017    0.8899    0.0000 O   0  0
    1.8162    1.3024    0.0000 C   0  0
    2.5307    0.8899    0.0000 C   0  0
    3.2452    1.3024    0.0000 Cl  0  0
  1  2  1  0
  2  3  2  0
  3  4  1  0
  4  5  2  0
  5  6  1  0
  1  6  2  0
  6  7  1  0
  7  8  2  0
  7  9  1  0
  9 10  1  0
 10 11  1  0
 11 12  1  0
M  END
$$$$

  SciTegic12132405552D

  9  9  0  0  0  0            999 V2000
   -1.0417    1.3024    0.0000 N   0  0
   -1.7561    0.8899    0.0000 C   0  0
   -1.7561    0.0649    0.0000 C   0  0
   -1.0417   -0.3476    0.0000 N   0  0
   -0.3272    0.0649    0.0000 C   0  0
   -0.3272    0.8899    0.0000 C   0  0
    0.3873    1.3024    0.0000 C   0  0
    0.3873    2.1274    0.0000 O   0  0
    1.1017    0.8899    0.0000 O   0  0
  1  2  1  0
  2  3  2  0
  3  4  1  0
  4  5  2  0
  5  6  1  0
  1  6  2  0
  6  7  1  0
  7  8  2  0
  7  9  1  0
M  END
$$$$
Molecule
  DSViewer          3D                             0

 17 19  0  0  0  0  0  0  0  0999 V2000
   -5.4925    1.2272    0.0129 C   0  0
   -6.6449    0.5513    0.0408 C   0  0
   -6.6423   -0.9398    0.0454 C   0  0
   -5.4879   -1.6123    0.0205 C   0  0
   -4.2557   -0.8471   -0.0149 C   0  0
   -4.2579    0.4662   -0.0147 C   0  0
   -2.8746   -1.3947   -0.0024 C   0  0
   -2.1102   -0.0767   -0.3742 C   0  0  1  0  0  0
   -3.0120    0.9695   -0.0433 O   0  0
   -0.6670   -0.0111    0.2071 C   0  0
    0.0792    1.1996   -0.2276 N   0  0
    1.4684    1.0999    0.2589 C   0  0
    2.2729    2.3282   -0.2162 C   0  0
    1.6527    3.5559    0.3116 N   0  0
    0.2650    3.6617   -0.1697 C   0  0
   -0.5347    2.4344    0.3096 C   0  0
    2.4178    4.7246   -0.1419 C   0  0
  1  2  2  0  0  0
  2  3  1  0  0  0
  3  4  2  0  0  0
  4  5  1  0  0  0
  5  6  2  0  0  0
  1  6  1  0  0  0
  7  8  1  0  0  0
  8  9  1  0  0  0
  5  7  1  0  0  0
  6  9  1  0  0  0
  8 10  1  0  0  0
 10 11  1  0  0  0
 12 13  1  0  0  0
 13 14  1  0  0  0
 14 15  1  0  0  0
 15 16  1  0  0  0
 11 12  1  0  0  0
 11 16  1  0  0  0
 14 17  1  0  0  0
M  END
> <Clean Energy>
77531.3

$$$$

  SciTegic12132405552D

 19 21  0  0  0  0            999 V2000
   -3.9931    1.1722    0.0000 C   0  0
   -4.7075    0.7597    0.0000 C   0  0
   -4.7075   -0.0653    0.0000 C   0  0
   -3.9931   -0.4778    0.0000 C   0  0
   -3.2786   -0.0653    0.0000 C   0  0
   -3.2786    0.7597    0.0000 C   0  0
   -2.4940   -0.3202    0.0000 C   0  0
   -2.0091    0.3472    0.0000 C   0  0
   -2.4940    1.0146    0.0000 O   0  0
   -1.1841    0.3472    0.0000 C   0  0
   -0.7716    1.0616    0.0000 N   0  0
    0.0534    1.0616    0.0000 C   0  0
    0.4660    1.7761    0.0000 C   0  0
    0.0535    2.4906    0.0000 N   0  0
   -0.7715    2.4906    0.0000 C   0  0
   -1.1840    1.7761    0.0000 C   0  0
    0.4660    3.2051    0.0000 C   0  0
    1.2910    3.2050    0.0000 C   0  0
    1.7035    3.9195    0.0000 C   0  0
  1  2  2  0
  2  3  1  0
  3  4  2  0
  4  5  1  0
  5  6  2  0
  1  6  1  0
  7  8  1  0
  8  9  1  0
  5  7  1  0
  6  9  1  0
  8 10  1  0
 10 11  1  0
 12 13  1  0
 13 14  1  0
 14 15  1  0
 15 16  1  0
 11 12  1  0
 11 16  1  0
 14 17  1  0
 17 18  1  0
 18 19  2  0
M  END
$$$$
Molecule
  DSViewer          3D                             0

 18 18  0  0  0  0  0  0  0  0999 V2000
   -0.8467    1.9697   -0.0001 C   0  0
   -2.1253    1.2664    0.0002 C   0  0
   -2.1457   -0.0682    0.0002 C   0  0
   -0.8950   -0.8405    0.0004 C   0  0
    0.2636   -0.1782    0.0003 C   0  0
    0.2905    1.2808    0.0003 C   0  0
   -0.8176    3.3593   -0.0001 O   0  0
    1.5685    1.9835    0.0000 C   0  0
   -3.3193    2.0103    0.0000 O   0  0
   -4.4735    1.1556    0.0002 C   0  0
   -1.0110   -2.3898    0.0007 C   0  0
    0.2464   -3.3068    0.0008 C   0  0
    1.5221   -2.9157   -0.0016 C   0  0
    2.6545    1.3250    0.0001 N   0  0
    3.8161    1.9692    0.0001 N   0  0
    5.0130    1.2530    0.0003 C   0  0
    6.2327    1.9334    0.0003 N   0  0
    4.9934   -0.0175    0.0006 N   0  0
  1  2  1  0  0  0
  2  3  2  0  0  0
  3  4  1  0  0  0
  4  5  2  0  0  0
  5  6  1  0  0  0
  1  6  2  0  0  0
  1  7  1  0  0  0
  6  8  1  0  0  0
  2  9  1  0  0  0
  9 10  1  0  0  0
  4 11  1  0  0  0
 11 12  1  0  0  0
 12 13  2  0  0  0
  8 14  2  0  0  0
 14 15  1  0  0  0
 15 16  1  0  0  0
 16 17  1  0  0  0
 16 18  2  0  0  0
M  END
> <Clean Energy>
1470.99

$$$$

  SciTegic12132405552D

 23 24  0  0  0  0            999 V2000
   -0.3038    1.3459    0.0000 C   0  0
   -1.0183    0.9333    0.0000 C   0  0
   -1.0183    0.1083    0.0000 C   0  0
   -0.3038   -0.3042    0.0000 C   0  0
    0.4106    0.1083    0.0000 C   0  0
    0.4106    0.9333    0.0000 C   0  0
   -0.3038    2.1709    0.0000 O   0  0
    1.1251    1.3458    0.0000 C   0  0
   -1.7328    1.3458    0.0000 O   0  0
   -2.4472    0.9333    0.0000 C   0  0
   -0.3038   -1.1292    0.0000 C   0  0
    0.4107   -1.5417    0.0000 C   0  0
    1.1251   -1.1292    0.0000 C   0  0
    1.1251    2.1708    0.0000 O   0  0
    1.8396    0.9333    0.0000 H   0  0
   -1.0183    2.5834    0.0000 C   0  0
   -1.0183    3.4084    0.0000 C   0  0
   -1.7328    2.1709    0.0000 O   0  0
   -0.3038    3.8209    0.0000 C   0  0
   -0.3038    4.6459    0.0000 C   0  0
   -1.0183    5.0584    0.0000 C   0  0
   -1.7328    4.6459    0.0000 C   0  0
   -1.7328    3.8209    0.0000 C   0  0
  1  2  1  0
  2  3  2  0
  3  4  1  0
  4  5  2  0
  5  6  1  0
  1  6  2  0
  1  7  1  0
  6  8  1  0
  2  9  1  0
  9 10  1  0
  4 11  1  0
 11 12  1  0
 12 13  2  0
  8 14  2  0
  8 15  1  0
  7 16  1  0
 16 17  1  0
 16 18  2  0
 19 20  2  0
 20 21  1  0
 21 22  2  0
 22 23  1  0
 17 19  1  0
 17 23  2  0
M  END
$$$$

  SciTegic12132405552D

 15 15  0  0  0  0            999 V2000
   -0.3038    1.3459    0.0000 C   0  0
   -1.0183    0.9333    0.0000 C   0  0
   -1.0183    0.1083    0.0000 C   0  0
   -0.3038   -0.3042    0.0000 C   0  0
    0.4106    0.1083    0.0000 C   0  0
    0.4106    0.9333    0.0000 C   0  0
   -0.3038    2.1709    0.0000 O   0  0
    1.1251    1.3458    0.0000 C   0  0
    1.1251    2.1708    0.0000 O   0  0
    1.8396    0.9333    0.0000 H   0  0
   -1.7328    1.3458    0.0000 O   0  0
   -2.4472    0.9333    0.0000 C   0  0
   -0.3038   -1.1292    0.0000 C   0  0
    0.4107   -1.5417    0.0000 C   0  0
    1.1251   -1.1292    0.0000 C   0  0
  1  2  1  0
  2  3  2  0
  3  4  1  0
  4  5  2  0
  5  6  1  0
  1  6  2  0
  1  7  1  0
  6  8  1  0
  8  9  2  0
  8 10  1  0
  2 11  1  0
 11 12  1  0
  4 13  1  0
 13 14  1  0
 14 15  2  0
M  END
$$$$
Molecule
  DSViewer          3D                             0

 26 27  0  0  0  0  0  0  0  0999 V2000
    0.7557   -0.8022   -0.1212 C   0  0
   -0.4000   -1.6963   -0.1050 C   0  0
   -0.3177   -2.9780    0.2303 C   0  0
    0.9851   -3.5357    0.5707 C   0  0
    2.0666   -2.7565    0.5493 C   0  0
    1.9732   -1.3301    0.2114 C   0  0
    3.3457   -3.3070    0.8081 N   0  0
    4.5112   -3.2736   -0.4740 S   0  0
    6.0362   -2.3942   -0.1344 C   0  0
    3.8519   -2.6014   -1.6629 O   0  0
    4.8583   -4.7038   -0.8375 O   0  0
    7.2902   -3.1464   -0.0242 C   0  0
    8.4493   -2.5040    0.1173 C   0  0
    8.4777   -1.0414    0.1692 C   0  0
    7.3405   -0.3526    0.0837 C   0  0
    6.0645   -1.0618   -0.0877 C   0  0
    0.3870    0.5656   -0.4978 O   0  0
    3.2228   -0.6734    0.2779 O   0  0
   -1.5528   -3.8897    0.1985 C   0  0
   -2.8667   -3.2071   -0.3411 C   0  0
   -3.5068   -2.2086    0.6678 C   0  0
    3.2116    0.2325    0.0797 H   0  0
    9.7001   -0.3714    0.2907 N   0  3
    1.3382    1.6200   -0.5946 C   0  0
    9.7335    0.9532    0.3069 O   0  5
   10.7029   -0.9840    0.3341 O   0  0
  1  2  1  0  0  0
  2  3  2  0  0  0
  3  4  1  0  0  0
  4  5  2  0  0  0
  5  6  1  0  0  0
  1  6  2  0  0  0
  5  7  1  0  0  0
  7  8  1  0  0  0
  8  9  1  0  0  0
  8 10  2  0  0  0
  8 11  2  0  0  0
 12 13  2  0  0  0
 13 14  1  0  0  0
 14 15  2  0  0  0
 15 16  1  0  0  0
  9 12  1  0  0  0
  9 16  2  0  0  0
  1 17  1  0  0  0
  6 18  1  0  0  0
  3 19  1  0  0  0
 19 20  1  0  0  0
 20 21  1  0  0  0
 18 22  1  0  0  0
 14 23  1  0  0  0
 17 24  1  0  0  0
 23 25  1  0  0  0
 23 26  2  0  0  0
M  CHG  2  23   1  25  -1
M  END
> <Clean Energy>
1423.61

$$$$

  SciTegic12132405552D

 24 25  0  0  0  0            999 V2000
    2.0399   -1.3017    0.0000 C   0  0
    1.3255   -1.7142    0.0000 C   0  0
    1.3255   -2.5392    0.0000 C   0  0
    2.0399   -2.9518    0.0000 C   0  0
    2.7544   -2.5392    0.0000 C   0  0
    2.7544   -1.7142    0.0000 C   0  0
    3.4689   -2.9517    0.0000 N   0  0
    4.1833   -2.5392    0.0000 S   0  0
    4.8978   -2.1267    0.0000 C   0  0
    3.7708   -1.8248    0.0000 O   0  0
    4.5958   -3.2537    0.0000 O   0  0
    5.6123   -2.5392    0.0000 C   0  0
    6.3268   -2.1267    0.0000 C   0  0
    6.3268   -1.3017    0.0000 C   0  0
    5.6123   -0.8892    0.0000 C   0  0
    4.8978   -1.3017    0.0000 C   0  0
    2.0399   -0.4767    0.0000 O   0  0
    3.4689   -1.3017    0.0000 O   0  0
    0.6110   -2.9517    0.0000 C   0  0
   -0.1035   -2.5392    0.0000 C   0  0
   -0.1035   -1.7142    0.0000 C   0  0
    3.4689   -0.4767    0.0000 H   0  0
    2.7544   -0.0642    0.0000 C   0  0
    7.0413   -0.8892    0.0000 C   0  0
  1  2  1  0
  2  3  2  0
  3  4  1  0
  4  5  2  0
  5  6  1  0
  1  6  2  0
  5  7  1  0
  7  8  1  0
  8  9  1  0
  8 10  2  0
  8 11  2  0
 12 13  2  0
 13 14  1  0
 14 15  2  0
 15 16  1  0
  9 12  1  0
  9 16  2  0
  1 17  1  0
  6 18  1  0
  3 19  1  0
 19 20  1  0
 20 21  1  0
 18 22  1  0
 17 23  1  0
 14 24  1  0
M  END
$$$$

  SciTegic12132405552D

 33 35  0  0  0  0            999 V2000
    2.0399   -1.3017    0.0000 C   0  0
    1.3255   -1.7142    0.0000 C   0  0
    1.3255   -2.5392    0.0000 C   0  0
    2.0399   -2.9518    0.0000 C   0  0
    2.7544   -2.5392    0.0000 C   0  0
    2.7544   -1.7142    0.0000 C   0  0
    3.4689   -2.9517    0.0000 N   0  0
    4.1833   -2.5392    0.0000 S   0  0
    4.8978   -2.1267    0.0000 C   0  0
    3.7708   -1.8248    0.0000 O   0  0
    4.5958   -3.2537    0.0000 O   0  0
    5.6123   -2.5392    0.0000 C   0  0
    6.3268   -2.1267    0.0000 C   0  0
    6.3268   -1.3017    0.0000 C   0  0
    5.6123   -0.8892    0.0000 C   0  0
    4.8978   -1.3017    0.0000 C   0  0
    2.0399   -0.4767    0.0000 O   0  0
    3.4689   -1.3017    0.0000 O   0  0
    0.6110   -2.9517    0.0000 C   0  0
   -0.1035   -2.5392    0.0000 C   0  0
   -0.1035   -1.7142    0.0000 C   0  0
    2.7544   -0.0642    0.0000 C   0  0
    7.0413   -0.8892    0.0000 C   0  0
    3.4689   -0.4767    0.0000 S   0  0
    2.7067   -0.7924    0.0000 O   0  0
    4.2311   -0.7924    0.0000 O   0  0
    3.4689    0.3483    0.0000 C   0  0
    4.1833    0.7608    0.0000 C   0  0
    4.1833    1.5858    0.0000 C   0  0
    3.4689    1.9983    0.0000 C   0  0
    2.7544    1.5858    0.0000 C   0  0
    2.7544    0.7608    0.0000 C   0  0
    3.4689    2.8233    0.0000 C   0  0
  1  2  1  0
  2  3  2  0
  3  4  1  0
  4  5  2  0
  5  6  1  0
  1  6  2  0
  5  7  1  0
  7  8  1  0
  8  9  1  0
  8 10  2  0
  8 11  2  0
 12 13  2  0
 13 14  1  0
 14 15  2  0
 15 16  1  0
  9 12  1  0
  9 16  2  0
  1 17  1  0
  6 18  1  0
  3 19  1  0
 19 20  1  0
 20 21  1  0
 17 22  1  0
 14 23  1  0
 18 24  1  0
 24 25  2  0
 24 26  2  0
 24 27  1  0
 28 29  2  0
 29 30  1  0
 30 31  2  0
 31 32  1  0
 27 28  1  0
 27 32  2  0
 30 33  1  0
M  END
$$$$

  SciTegic12132405552D

 26 27  0  0  0  0            999 V2000
    2.0399   -1.3017    0.0000 C   0  0
    1.3255   -1.7142    0.0000 C   0  0
    1.3255   -2.5392    0.0000 C   0  0
    2.0399   -2.9518    0.0000 C   0  0
    2.7544   -2.5392    0.0000 C   0  0
    2.7544   -1.7142    0.0000 C   0  0
    3.4689   -2.9517    0.0000 N   0  0
    2.0399   -0.4767    0.0000 O   0  0
    3.4689   -1.3017    0.0000 O   0  0
    0.6110   -2.9517    0.0000 C   0  0
   -0.1035   -2.5392    0.0000 C   0  0
   -0.1035   -1.7142    0.0000 C   0  0
    2.7544   -0.0642    0.0000 C   0  0
    4.1833   -2.5392    0.0000 C   0  0
    4.8978   -2.9517    0.0000 C   0  0
    4.1833   -1.7142    0.0000 O   0  0
    3.4689   -0.4767    0.0000 H   0  0
    5.6123   -2.5392    0.0000 C   0  0
    4.8978   -3.7767    0.0000 C   0  0
    5.6123   -4.1893    0.0000 C   0  0
    6.3267   -3.7767    0.0000 C   0  0
    6.3267   -2.9517    0.0000 C   0  0
    7.0412   -4.1892    0.0000 N   0  0
    7.7557   -3.7767    0.0000 C   0  0
    8.4702   -4.1892    0.0000 C   0  0
    7.7557   -2.9517    0.0000 O   0  0
  1  2  1  0
  2  3  2  0
  3  4  1  0
  4  5  2  0
  5  6  1  0
  1  6  2  0
  5  7  1  0
  1  8  1  0
  6  9  1  0
  3 10  1  0
 10 11  1  0
 11 12  1  0
  8 13  1  0
  7 14  1  0
 14 15  1  0
 14 16  2  0
  9 17  1  0
 19 20  1  0
 20 21  2  0
 21 22  1  0
 18 22  2  0
 18 15  1  0
 15 19  2  0
 21 23  1  0
 23 24  1  0
 24 25  1  0
 24 26  2  0
M  END
$$$$

  SciTegic12132405552D

 22 23  0  0  0  0            999 V2000
    2.0399   -1.3017    0.0000 C   0  0
    1.3255   -1.7142    0.0000 C   0  0
    1.3255   -2.5392    0.0000 C   0  0
    2.0399   -2.9518    0.0000 C   0  0
    2.7544   -2.5392    0.0000 C   0  0
    2.7544   -1.7142    0.0000 C   0  0
    3.4689   -2.9517    0.0000 N   0  0
    4.1833   -2.5392    0.0000 S   0  0
    4.8978   -2.1267    0.0000 C   0  0
    3.7708   -1.8248    0.0000 O   0  0
    4.5958   -3.2537    0.0000 O   0  0
    5.6123   -2.5392    0.0000 C   0  0
    6.3268   -2.1267    0.0000 C   0  0
    6.3268   -1.3017    0.0000 C   0  0
    5.6123   -0.8892    0.0000 C   0  0
    4.8978   -1.3017    0.0000 C   0  0
    3.4689   -1.3017    0.0000 O   0  0
    7.0413   -0.8892    0.0000 N   0  0
    3.4689   -0.4767    0.0000 H   0  0
    7.7557   -1.3017    0.0000 C   0  0
    8.4702   -0.8892    0.0000 C   0  0
    7.7557   -2.1267    0.0000 O   0  0
  1  2  1  0
  2  3  2  0
  3  4  1  0
  4  5  2  0
  5  6  1  0
  1  6  2  0
  5  7  1  0
  7  8  1  0
  8  9  1  0
  8 10  2  0
  8 11  2  0
 12 13  2  0
 13 14  1  0
 14 15  2  0
 15 16  1  0
  9 12  1  0
  9 16  2  0
  6 17  1  0
 14 18  1  0
 17 19  1  0
 18 20  1  0
 20 21  1  0
 20 22  2  0
M  END
$$$$

  SciTegic12132405552D

 25 26  0  0  0  0            999 V2000
    2.0399   -1.3017    0.0000 C   0  0
    1.3255   -1.7142    0.0000 C   0  0
    1.3255   -2.5392    0.0000 C   0  0
    2.0399   -2.9518    0.0000 C   0  0
    2.7544   -2.5392    0.0000 C   0  0
    2.7544   -1.7142    0.0000 C   0  0
    3.4689   -2.9517    0.0000 N   0  0
    4.1833   -2.5392    0.0000 S   0  0
    4.8978   -2.1267    0.0000 C   0  0
    3.7708   -1.8248    0.0000 O   0  0
    4.5958   -3.2537    0.0000 O   0  0
    5.6123   -2.5392    0.0000 C   0  0
    6.3268   -2.1267    0.0000 C   0  0
    6.3268   -1.3017    0.0000 C   0  0
    5.6123   -0.8892    0.0000 C   0  0
    4.8978   -1.3017    0.0000 C   0  0
    2.0399   -0.4767    0.0000 O   0  0
    3.4689   -1.3017    0.0000 O   0  0
    7.0413   -0.8892    0.0000 N   0  0
    7.7557   -1.3017    0.0000 C   0  0
    8.4702   -0.8892    0.0000 C   0  0
    7.7557   -2.1267    0.0000 O   0  0
    0.6110   -2.9517    0.0000 C   0  0
   -0.1035   -2.5392    0.0000 C   0  0
   -0.1035   -1.7142    0.0000 C   0  0
  1  2  1  0
  2  3  2  0
  3  4  1  0
  4  5  2  0
  5  6  1  0
  1  6  2  0
  5  7  1  0
  7  8  1  0
  8  9  1  0
  8 10  2  0
  8 11  2  0
 12 13  2  0
 13 14  1  0
 14 15  2  0
 15 16  1  0
  9 12  1  0
  9 16  2  0
  1 17  1  0
  6 18  1  0
 14 19  1  0
 19 20  1  0
 20 21  1  0
 20 22  2  0
  3 23  1  0
 23 24  1  0
 24 25  1  0
M  END
$$$$

  SciTegic12132405552D

 27 28  0  0  0  0            999 V2000
    2.0399   -1.3017    0.0000 C   0  0
    1.3255   -1.7142    0.0000 C   0  0
    1.3255   -2.5392    0.0000 C   0  0
    2.0399   -2.9518    0.0000 C   0  0
    2.7544   -2.5392    0.0000 C   0  0
    2.7544   -1.7142    0.0000 C   0  0
    3.4689   -2.9517    0.0000 N   0  0
    4.1833   -2.5392    0.0000 S   0  0
    4.8978   -2.1267    0.0000 C   0  0
    3.7708   -1.8248    0.0000 O   0  0
    4.5958   -3.2537    0.0000 O   0  0
    5.6123   -2.5392    0.0000 C   0  0
    6.3268   -2.1267    0.0000 C   0  0
    6.3268   -1.3017    0.0000 C   0  0
    5.6123   -0.8892    0.0000 C   0  0
    4.8978   -1.3017    0.0000 C   0  0
    2.0399   -0.4767    0.0000 O   0  0
    3.4689   -1.3017    0.0000 O   0  0
    7.0413   -0.8892    0.0000 N   0  0
    7.7557   -1.3017    0.0000 C   0  0
    8.4702   -0.8892    0.0000 C   0  0
    7.7557   -2.1267    0.0000 O   0  0
    0.6110   -2.9517    0.0000 C   0  0
   -0.1035   -2.5392    0.0000 C   0  0
   -0.1035   -1.7142    0.0000 C   0  0
    2.7544   -0.0642    0.0000 C   0  0
    3.4689   -0.4767    0.0000 H   0  0
  1  2  1  0
  2  3  2  0
  3  4  1  0
  4  5  2  0
  5  6  1  0
  1  6  2  0
  5  7  1  0
  7  8  1  0
  8  9  1  0
  8 10  2  0
  8 11  2  0
 12 13  2  0
 13 14  1  0
 14 15  2  0
 15 16  1  0
  9 12  1  0
  9 16  2  0
  1 17  1  0
  6 18  1  0
 14 19  1  0
 19 20  1  0
 20 21  1  0
 20 22  2  0
  3 23  1  0
 23 24  1  0
 24 25  1  0
 17 26  1  0
 18 27  1  0
M  END
$$$$

  SciTegic12132405552D

 28 29  0  0  0  0            999 V2000
    2.0399   -1.3017    0.0000 C   0  0
    1.3255   -1.7142    0.0000 C   0  0
    1.3255   -2.5392    0.0000 C   0  0
    2.0399   -2.9518    0.0000 C   0  0
    2.7544   -2.5392    0.0000 C   0  0
    2.7544   -1.7142    0.0000 C   0  0
    3.4689   -2.9517    0.0000 N   0  0
    4.1833   -2.5392    0.0000 S   0  0
    4.8978   -2.1267    0.0000 C   0  0
    3.7708   -1.8248    0.0000 O   0  0
    4.5958   -3.2537    0.0000 O   0  0
    5.6123   -2.5392    0.0000 C   0  0
    6.3268   -2.1267    0.0000 C   0  0
    6.3268   -1.3017    0.0000 C   0  0
    5.6123   -0.8892    0.0000 C   0  0
    4.8978   -1.3017    0.0000 C   0  0
    2.0399   -0.4767    0.0000 O   0  0
    3.4689   -1.3017    0.0000 O   0  0
    7.0413   -0.8892    0.0000 N   0  0
    7.7557   -1.3017    0.0000 C   0  0
    8.4702   -0.8892    0.0000 C   0  0
    7.7557   -2.1267    0.0000 O   0  0
    0.6110   -2.9517    0.0000 C   0  0
   -0.1035   -2.5392    0.0000 C   0  0
   -0.1035   -1.7142    0.0000 C   0  0
    2.7544   -0.0642    0.0000 C   0  0
    3.4689   -0.4767    0.0000 H   0  0
    3.4689   -3.7767    0.0000 C   0  0
  1  2  1  0
  2  3  2  0
  3  4  1  0
  4  5  2  0
  5  6  1  0
  1  6  2  0
  5  7  1  0
  7  8  1  0
  8  9  1  0
  8 10  2  0
  8 11  2  0
 12 13  2  0
 13 14  1  0
 14 15  2  0
 15 16  1  0
  9 12  1  0
  9 16  2  0
  1 17  1  0
  6 18  1  0
 14 19  1  0
 19 20  1  0
 20 21  1  0
 20 22  2  0
  3 23  1  0
 23 24  1  0
 24 25  1  0
 17 26  1  0
 18 27  1  0
  7 28  1  0
M  END
$$$$

  SciTegic12132405552D

 24 25  0  0  0  0            999 V2000
    2.0399   -1.3017    0.0000 C   0  0
    1.3255   -1.7142    0.0000 C   0  0
    1.3255   -2.5392    0.0000 C   0  0
    2.0399   -2.9518    0.0000 C   0  0
    2.7544   -2.5392    0.0000 C   0  0
    2.7544   -1.7142    0.0000 C   0  0
    3.4689   -2.9517    0.0000 N   0  0
    4.1833   -2.5392    0.0000 S   0  0
    4.8978   -2.1267    0.0000 C   0  0
    3.7708   -1.8248    0.0000 O   0  0
    4.5958   -3.2537    0.0000 O   0  0
    5.6123   -2.5392    0.0000 C   0  0
    6.3268   -2.1267    0.0000 C   0  0
    6.3268   -1.3017    0.0000 C   0  0
    5.6123   -0.8892    0.0000 C   0  0
    4.8978   -1.3017    0.0000 C   0  0
    2.0399   -0.4767    0.0000 O   0  0
    3.4689   -1.3017    0.0000 O   0  0
    0.6110   -2.9517    0.0000 C   0  0
   -0.1035   -2.5392    0.0000 C   0  0
   -0.1035   -1.7142    0.0000 C   0  0
    3.4689   -0.4767    0.0000 H   0  0
    7.0413   -0.8892    0.0000 H   0  0
    2.7544   -0.0642    0.0000 C   0  0
  1  2  1  0
  2  3  2  0
  3  4  1  0
  4  5  2  0
  5  6  1  0
  1  6  2  0
  5  7  1  0
  7  8  1  0
  8  9  1  0
  8 10  2  0
  8 11  2  0
 12 13  2  0
 13 14  1  0
 14 15  2  0
 15 16  1  0
  9 12  1  0
  9 16  2  0
  1 17  1  0
  6 18  1  0
  3 19  1  0
 19 20  1  0
 20 21  1  0
 18 22  1  0
 14 23  1  0
 17 24  1  0
M  END
$$$$
Molecule
  DSViewer          3D                             0

 21 22  0  0  0  0  0  0  0  0999 V2000
    0.1711   -3.2292   -0.0002 C   0  0
   -1.1157   -3.9273   -0.0004 C   0  0
   -1.1491   -5.2608   -0.0003 C   0  0
    0.1027   -6.0240    0.0000 C   0  0
    1.2742   -5.3874    0.0002 C   0  0
    1.3085   -3.9195    0.0001 C   0  0
    2.5912   -3.2075    0.0002 C   0  0
    2.6026   -1.9705    0.0001 O   0  0
    3.7994   -3.9106    0.0004 N   0  0
    4.9554   -3.2410    0.0004 N   0  0
    6.0601   -3.8704    0.0003 C   0  0
    7.3309   -3.1361    0.0003 C   0  0
    8.6010   -3.8701    0.0002 C   0  0
    9.7563   -3.2059    0.0001 C   0  0
    9.7592   -1.7407    0.0001 C   0  0
    8.6064   -1.0729    0.0001 C   0  0
    7.3338   -1.8036    0.0002 C   0  0
   10.9602   -3.9037    0.0000 O   0  0
   -2.3795   -5.9221   -0.0005 N   0  3
   -2.4174   -7.2470   -0.0004 O   0  5
   -3.3789   -5.3062   -0.0007 O   0  0
  1  2  1  0  0  0
  2  3  2  0  0  0
  3  4  1  0  0  0
  4  5  2  0  0  0
  5  6  1  0  0  0
  1  6  2  0  0  0
  6  7  1  0  0  0
  7  8  2  0  0  0
  7  9  1  0  0  0
  9 10  1  0  0  0
 10 11  2  0  0  0
 11 12  1  0  0  0
 13 14  2  0  0  0
 14 15  1  0  0  0
 15 16  2  0  0  0
 16 17  1  0  0  0
 12 13  1  0  0  0
 12 17  2  0  0  0
 14 18  1  0  0  0
  3 19  1  0  0  0
 19 20  1  0  0  0
 19 21  2  0  0  0
M  CHG  2  19   1  20  -1
M  END
> <Clean Energy>
1.18826

$$$$

  SciTegic12132405552D

 19 20  0  0  0  0            999 V2000
    1.5191   -3.4719    0.0000 C   0  0
    0.8046   -3.8844    0.0000 C   0  0
    0.8046   -4.7094    0.0000 C   0  0
    1.5191   -5.1219    0.0000 C   0  0
    2.2336   -4.7094    0.0000 C   0  0
    2.2336   -3.8844    0.0000 C   0  0
    2.9480   -3.4719    0.0000 C   0  0
    2.9480   -2.6469    0.0000 O   0  0
    3.6625   -3.8844    0.0000 N   0  0
    4.3770   -3.4719    0.0000 N   0  0
    5.0914   -3.8844    0.0000 C   0  0
    5.8059   -3.4719    0.0000 C   0  0
    6.5204   -3.8844    0.0000 C   0  0
    7.2349   -3.4719    0.0000 C   0  0
    7.2349   -2.6469    0.0000 C   0  0
    6.5204   -2.2344    0.0000 C   0  0
    5.8059   -2.6469    0.0000 C   0  0
    7.9493   -3.8844    0.0000 O   0  0
    0.0902   -5.1219    0.0000 O   0  0
  1  2  1  0
  2  3  2  0
  3  4  1  0
  4  5  2  0
  5  6  1  0
  1  6  2  0
  6  7  1  0
  7  8  2  0
  7  9  1  0
  9 10  1  0
 10 11  2  0
 11 12  1  0
 13 14  2  0
 14 15  1  0
 15 16  2  0
 16 17  1  0
 12 13  1  0
 12 17  2  0
 14 18  1  0
  3 19  1  0
M  END
$$$$

  SciTegic12132405552D

 27 29  0  0  0  0            999 V2000
    1.5191   -3.4719    0.0000 C   0  0
    0.8046   -3.8844    0.0000 C   0  0
    0.8046   -4.7094    0.0000 C   0  0
    1.5191   -5.1219    0.0000 C   0  0
    2.2336   -4.7094    0.0000 C   0  0
    2.2336   -3.8844    0.0000 C   0  0
    2.9480   -3.4719    0.0000 C   0  0
    2.9480   -2.6469    0.0000 O   0  0
    3.6625   -3.8844    0.0000 N   0  0
    4.3770   -3.4719    0.0000 N   0  0
    5.0914   -3.8844    0.0000 C   0  0
    5.8059   -3.4719    0.0000 C   0  0
    6.5204   -3.8844    0.0000 C   0  0
    7.2349   -3.4719    0.0000 C   0  0
    7.2349   -2.6469    0.0000 C   0  0
    6.5204   -2.2344    0.0000 C   0  0
    5.8059   -2.6469    0.0000 C   0  0
    7.9493   -3.8844    0.0000 O   0  0
    0.0902   -5.1219    0.0000 N   0  0
   -0.6243   -4.7094    0.0000 C   0  0
   -1.3388   -5.1219    0.0000 C   0  0
   -0.6243   -3.8844    0.0000 O   0  0
   -2.0533   -4.7094    0.0000 C   0  0
   -2.7677   -5.1219    0.0000 C   0  0
   -2.7678   -5.9469    0.0000 C   0  0
   -2.0533   -6.3594    0.0000 C   0  0
   -1.3388   -5.9469    0.0000 C   0  0
  1  2  1  0
  2  3  2  0
  3  4  1  0
  4  5  2  0
  5  6  1  0
  1  6  2  0
  6  7  1  0
  7  8  2  0
  7  9  1  0
  9 10  1  0
 10 11  2  0
 11 12  1  0
 13 14  2  0
 14 15  1  0
 15 16  2  0
 16 17  1  0
 12 13  1  0
 12 17  2  0
 14 18  1  0
  3 19  1  0
 19 20  1  0
 20 21  1  0
 20 22  2  0
 23 24  2  0
 24 25  1  0
 25 26  2  0
 26 27  1  0
 21 23  1  0
 21 27  2  0
M  END
$$$$

  SciTegic12132405552D

 26 27  0  0  0  0            999 V2000
    1.5191   -3.4719    0.0000 C   0  0
    0.8046   -3.8844    0.0000 C   0  0
    0.8046   -4.7094    0.0000 C   0  0
    1.5191   -5.1219    0.0000 C   0  0
    2.2336   -4.7094    0.0000 C   0  0
    2.2336   -3.8844    0.0000 C   0  0
    2.9480   -3.4719    0.0000 C   0  0
    2.9480   -2.6469    0.0000 O   0  0
    3.6625   -3.8844    0.0000 N   0  0
    4.3770   -3.4719    0.0000 N   0  0
    5.0914   -3.8844    0.0000 C   0  0
    5.8059   -3.4719    0.0000 C   0  0
    6.5204   -3.8844    0.0000 C   0  0
    7.2349   -3.4719    0.0000 C   0  0
    7.2349   -2.6469    0.0000 C   0  0
    6.5204   -2.2344    0.0000 C   0  0
    5.8059   -2.6469    0.0000 C   0  0
    7.9493   -3.8844    0.0000 O   0  0
    0.0902   -5.1219    0.0000 N   0  0
   -0.6243   -4.7094    0.0000 C   0  0
   -0.6243   -3.8844    0.0000 O   0  0
   -1.3388   -5.1219    0.0000 C   0  0
   -2.0533   -4.7094    0.0000 C   0  0
   -2.7677   -5.1219    0.0000 C   0  0
   -3.4822   -4.7094    0.0000 O   0  0
   -2.7677   -5.9469    0.0000 O   0  0
  1  2  1  0
  2  3  2  0
  3  4  1  0
  4  5  2  0
  5  6  1  0
  1  6  2  0
  6  7  1  0
  7  8  2  0
  7  9  1  0
  9 10  1  0
 10 11  2  0
 11 12  1  0
 13 14  2  0
 14 15  1  0
 15 16  2  0
 16 17  1  0
 12 13  1  0
 12 17  2  0
 14 18  1  0
  3 19  1  0
 19 20  1  0
 20 21  2  0
 20 22  1  0
 22 23  1  0
 23 24  1  0
 24 25  1  0
 24 26  2  0
M  END
$$$$

  SciTegic12132405552D

 18 19  0  0  0  0            999 V2000
    1.5191   -3.4719    0.0000 C   0  0
    0.8046   -3.8844    0.0000 C   0  0
    0.8046   -4.7094    0.0000 N   0  0
    1.5191   -5.1219    0.0000 C   0  0
    2.2336   -4.7094    0.0000 C   0  0
    2.2336   -3.8844    0.0000 C   0  0
    2.9480   -3.4719    0.0000 C   0  0
    2.9480   -2.6469    0.0000 O   0  0
    3.6625   -3.8844    0.0000 N   0  0
    4.3770   -3.4719    0.0000 N   0  0
    5.0914   -3.8844    0.0000 C   0  0
    5.8059   -3.4719    0.0000 C   0  0
    6.5204   -3.8844    0.0000 C   0  0
    7.2349   -3.4719    0.0000 C   0  0
    7.2349   -2.6469    0.0000 C   0  0
    6.5204   -2.2344    0.0000 C   0  0
    5.8059   -2.6469    0.0000 C   0  0
    7.9493   -3.8844    0.0000 O   0  0
  1  2  1  0
  2  3  2  0
  3  4  1  0
  4  5  2  0
  5  6  1  0
  1  6  2  0
  6  7  1  0
  7  8  2  0
  7  9  1  0
  9 10  1  0
 10 11  2  0
 11 12  1  0
 13 14  2  0
 14 15  1  0
 15 16  2  0
 16 17  1  0
 12 13  1  0
 12 17  2  0
 14 18  1  0
M  END
$$$$

  SciTegic12132405552D

 18 19  0  0  0  0            999 V2000
    1.5191   -3.4719    0.0000 C   0  0
    0.8046   -3.8844    0.0000 C   0  0
    0.8046   -4.7094    0.0000 C   0  0
    1.5191   -5.1219    0.0000 C   0  0
    2.2336   -4.7094    0.0000 C   0  0
    2.2336   -3.8844    0.0000 C   0  0
    2.9480   -3.4719    0.0000 C   0  0
    2.9480   -2.6469    0.0000 O   0  0
    3.6625   -3.8844    0.0000 N   0  0
    4.3770   -3.4719    0.0000 N   0  0
    5.0914   -3.8844    0.0000 C   0  0
    5.8059   -3.4719    0.0000 C   0  0
    6.5204   -3.8844    0.0000 C   0  0
    7.2349   -3.4719    0.0000 C   0  0
    7.2349   -2.6469    0.0000 C   0  0
    6.5204   -2.2344    0.0000 C   0  0
    5.8059   -2.6469    0.0000 C   0  0
    7.9493   -3.8844    0.0000 O   0  0
  1  2  1  0
  2  3  2  0
  3  4  1  0
  4  5  2  0
  5  6  1  0
  1  6  2  0
  6  7  1  0
  7  8  2  0
  7  9  1  0
  9 10  1  0
 10 11  2  0
 11 12  1  0
 13 14  2  0
 14 15  1  0
 15 16  2  0
 16 17  1  0
 12 13  1  0
 12 17  2  0
 14 18  1  0
M  END
$$$$

  SciTegic12132405552D

 19 20  0  0  0  0            999 V2000
    1.5191   -3.4719    0.0000 C   0  0
    0.8046   -3.8844    0.0000 C   0  0
    0.8046   -4.7094    0.0000 C   0  0
    1.5191   -5.1219    0.0000 C   0  0
    2.2336   -4.7094    0.0000 C   0  0
    2.2336   -3.8844    0.0000 C   0  0
    2.9480   -3.4719    0.0000 C   0  0
    2.9480   -2.6469    0.0000 O   0  0
    3.6625   -3.8844    0.0000 N   0  0
    4.3770   -3.4719    0.0000 N   0  0
    5.0914   -3.8844    0.0000 C   0  0
    5.8059   -3.4719    0.0000 C   0  0
    6.5204   -3.8844    0.0000 C   0  0
    7.2349   -3.4719    0.0000 C   0  0
    7.2349   -2.6469    0.0000 C   0  0
    6.5204   -2.2344    0.0000 C   0  0
    5.8059   -2.6469    0.0000 C   0  0
    7.9493   -3.8844    0.0000 O   0  0
    0.0902   -5.1219    0.0000 Cl  0  0
  1  2  1  0
  2  3  2  0
  3  4  1  0
  4  5  2  0
  5  6  1  0
  1  6  2  0
  6  7  1  0
  7  8  2  0
  7  9  1  0
  9 10  1  0
 10 11  2  0
 11 12  1  0
 13 14  2  0
 14 15  1  0
 15 16  2  0
 16 17  1  0
 12 13  1  0
 12 17  2  0
 14 18  1  0
  3 19  1  0
M  END
$$$$
Molecule
  DSViewer          3D                             0

 16 17  0  0  0  0  0  0  0  0999 V2000
   -4.5671    2.4657    0.0001 C   0  0
   -5.6985    1.7616    0.0001 C   0  0
   -5.6818    0.3047   -0.0001 C   0  0
   -4.5275   -0.3523   -0.0001 C   0  0
   -3.2608    0.3737   -0.0001 C   0  0
   -3.2432    1.7140    0.0002 C   0  0
   -2.0304    2.3693    0.0001 O   0  0
   -2.0125   -0.3897   -0.0001 C   0  0
   -0.8508    0.2494   -0.0001 C   0  0
   -0.8504    1.6981    0.0001 C   0  0
   -4.7136    3.8982    0.0003 O   0  0
    0.4049   -0.5038   -0.0001 C   0  0
    0.2148    2.3243    0.0002 O   0  0
    1.6253    0.1643   -0.0000 O   0  0
    0.3799   -1.7394   -0.0002 O   0  0
   -3.5130    4.6758    0.0003 C   0  0
  8  9  2  0  0  0
  9 10  1  0  0  0
  7 10  1  0  0  0
  5  8  1  0  0  0
  7  6  1  0  0  0
  1  2  2  0  0  0
  2  3  1  0  0  0
  3  4  2  0  0  0
  4  5  1  0  0  0
  1  6  1  0  0  0
  5  6  2  0  0  0
  1 11  1  0  0  0
  9 12  1  0  0  0
 10 13  2  0  0  0
 12 14  1  0  0  0
 12 15  2  0  0  0
 11 16  1  0  0  0
M  END
> <Clean Energy>
13319.5

$$$$

  SciTegic12132405552D

 24 26  0  0  0  0            999 V2000
   -3.6458    1.9101    0.0000 C   0  0
   -4.3603    1.4976    0.0000 C   0  0
   -4.3603    0.6726    0.0000 C   0  0
   -3.6458    0.2601    0.0000 C   0  0
   -2.9314    0.6726    0.0000 C   0  0
   -2.9314    1.4976    0.0000 C   0  0
   -2.2169    1.9101    0.0000 O   0  0
   -2.2169    0.2601    0.0000 C   0  0
   -1.5024    0.6726    0.0000 C   0  0
   -1.5024    1.4976    0.0000 C   0  0
   -3.6458    2.7351    0.0000 O   0  0
   -0.7880    0.2601    0.0000 C   0  0
   -0.7880    1.9101    0.0000 O   0  0
   -0.0735    0.6726    0.0000 C   0  0
    0.6410    0.2601    0.0000 C   0  0
    1.3555    0.6726    0.0000 C   0  0
    1.3555    1.4976    0.0000 C   0  0
    0.6410    1.9101    0.0000 C   0  0
   -0.0735    1.4976    0.0000 C   0  0
   -0.7880   -0.5649    0.0000 O   0  0
   -2.9314    3.1476    0.0000 C   0  0
    2.0699    1.9101    0.0000 N   0  0
    2.0699    2.7351    0.0000 H   0  0
    2.7844    1.4976    0.0000 H   0  0
  8  9  2  0
  9 10  1  0
  7 10  1  0
  5  8  1  0
  7  6  1  0
  1  2  2  0
  2  3  1  0
  3  4  2  0
  4  5  1  0
  1  6  1  0
  5  6  2  0
  1 11  1  0
  9 12  1  0
 10 13  2  0
 12 14  1  0
 15 16  2  0
 16 17  1  0
 17 18  2  0
 18 19  1  0
 14 15  1  0
 14 19  2  0
 12 20  2  0
 11 21  1  0
 17 22  1  0
 22 23  1  0
 22 24  1  0
M  END
$$$$

  SciTegic12132405552D

 21 23  0  0  0  0            999 V2000
   -3.6458    1.9101    0.0000 C   0  0
   -4.3603    1.4976    0.0000 C   0  0
   -4.3603    0.6726    0.0000 C   0  0
   -3.6458    0.2601    0.0000 C   0  0
   -2.9314    0.6726    0.0000 C   0  0
   -2.9314    1.4976    0.0000 C   0  0
   -2.2169    1.9101    0.0000 O   0  0
   -2.2169    0.2601    0.0000 C   0  0
   -1.5024    0.6726    0.0000 C   0  0
   -1.5024    1.4976    0.0000 C   0  0
   -3.6458    2.7351    0.0000 O   0  0
   -0.7880    0.2601    0.0000 C   0  0
   -0.7880    1.9101    0.0000 O   0  0
   -0.0735    0.6726    0.0000 C   0  0
    0.6410    0.2601    0.0000 C   0  0
    1.3555    0.6726    0.0000 C   0  0
    1.3555    1.4976    0.0000 C   0  0
    0.6410    1.9101    0.0000 C   0  0
   -0.0735    1.4976    0.0000 C   0  0
   -0.7880   -0.5649    0.0000 O   0  0
   -2.9314    3.1476    0.0000 C   0  0
  8  9  2  0
  9 10  1  0
  7 10  1  0
  5  8  1  0
  7  6  1  0
  1  2  2  0
  2  3  1  0
  3  4  2  0
  4  5  1  0
  1  6  1  0
  5  6  2  0
  1 11  1  0
  9 12  1  0
 10 13  2  0
 12 14  1  0
 15 16  2  0
 16 17  1  0
 17 18  2  0
 18 19  1  0
 14 15  1  0
 14 19  2  0
 12 20  2  0
 11 21  1  0
M  END
$$$$

  SciTegic12132405552D

 24 26  0  0  0  0            999 V2000
   -3.6458    1.9101    0.0000 C   0  0
   -4.3603    1.4976    0.0000 C   0  0
   -4.3603    0.6726    0.0000 C   0  0
   -3.6458    0.2601    0.0000 C   0  0
   -2.9314    0.6726    0.0000 C   0  0
   -2.9314    1.4976    0.0000 C   0  0
   -2.2169    1.9101    0.0000 O   0  0
   -2.2169    0.2601    0.0000 C   0  0
   -1.5024    0.6726    0.0000 C   0  0
   -1.5024    1.4976    0.0000 C   0  0
   -3.6458    2.7351    0.0000 O   0  0
   -0.7880    0.2601    0.0000 C   0  0
   -0.7880    1.9101    0.0000 O   0  0
   -0.0735    0.6726    0.0000 C   0  0
    0.6410    0.2601    0.0000 C   0  0
    1.3555    0.6726    0.0000 C   0  0
    1.3555    1.4976    0.0000 C   0  0
    0.6410    1.9101    0.0000 C   0  0
   -0.0735    1.4976    0.0000 C   0  0
    2.0699    1.9101    0.0000 N   0  3
   -0.7880   -0.5649    0.0000 O   0  0
   -2.9314    3.1476    0.0000 C   0  0
    2.0699    2.7351    0.0000 O   0  5
    2.7844    1.4976    0.0000 O   0  0
  8  9  2  0
  9 10  1  0
  7 10  1  0
  5  8  1  0
  7  6  1  0
  1  2  2  0
  2  3  1  0
  3  4  2  0
  4  5  1  0
  1  6  1  0
  5  6  2  0
  1 11  1  0
  9 12  1  0
 10 13  2  0
 12 14  1  0
 15 16  2  0
 16 17  1  0
 17 18  2  0
 18 19  1  0
 14 15  1  0
 14 19  2  0
 17 20  1  0
 12 21  2  0
 11 22  1  0
 20 23  1  0
 20 24  2  0
M  CHG  2  20   1  23  -1
M  STY  1   1 SUP
M  SLB  1   1   1
M  SAL   1  3  20  23  24
M  SBL   1  1  22
M  SMT   1 NO2
M  SAP   1  1  20  17  1
M  END
$$$$
