BR010001
  DSViewer          3D                             0

 31 31  0  0  0  0  0  0  0  0999 V2000
    6.0448    6.9601    2.0541 C   0  0
    4.8920    6.3841    2.5879 C   0  0
    6.7451    6.3073    1.0396 C   0  0
    4.4396    5.1553    2.1074 C   0  0
    6.2926    5.0785    0.5590 C   0  0
    5.1399    4.5025    1.0929 C   0  0
    4.6624    3.2042    0.5849 C   0  0
    3.4107    2.7446    0.7283 C   0  0
    3.0367    1.4168    0.1632 C   0  0
    0.5506   -0.9009    2.3634 C   0  0
    1.0895   -0.1201   -0.0338 C   0  0
    1.2150   -1.2291    1.0149 C   0  0  2  0  0  0
    1.7151    1.1221    0.4120 N   0  0
    0.6771   -2.4966    0.4253 N   0  3
   -0.6831   -0.6382    2.3362 O   0  5
    3.8356    0.7081   -0.4404 O   0  0
    1.3390   -0.9334    3.3530 O   0  0
    6.3963    7.9174    2.4274 H   0  0
    4.3459    6.8928    3.3771 H   0  0
    7.6420    6.7562    0.6231 H   0  0
    3.5393    4.7188    2.5336 H   0  0
    6.8495    4.5820   -0.2321 H   0  0
    5.4033    2.6179    0.0460 H   0  0
    2.6424    3.3150    1.2395 H   0  0
    0.0319    0.0793   -0.2421 H   0  0
    1.5514   -0.4304   -0.9784 H   0  0
    2.2756   -1.4288    1.2146 H   0  0
    1.1569    1.7904    0.9222 H   0  0
    1.4282   -3.1773    0.3073 H   0  0
    0.2575   -2.3104   -0.4865 H   0  0
   -0.0345   -2.8964    1.0381 H   0  0
  1  2  2  0  0  0
  1  3  1  0  0  0
  2  4  1  0  0  0
  3  5  2  0  0  0
  4  6  2  0  0  0
  5  6  1  0  0  0
  6  7  1  0  0  0
  7  8  2  0  0  0
  8  9  1  0  0  0
  9 13  1  0  0  0
  9 16  2  0  0  0
 10 12  1  0  0  0
 10 15  1  0  0  0
 10 17  2  0  0  0
 11 12  1  0  0  0
 11 13  1  0  0  0
 12 14  1  0  0  0
  1 18  1  0  0  0
  2 19  1  0  0  0
  3 20  1  0  0  0
  4 21  1  0  0  0
  5 22  1  0  0  0
  7 23  1  0  0  0
  8 24  1  0  0  0
 11 25  1  0  0  0
 11 26  1  0  0  0
 12 27  1  0  0  0
 13 28  1  0  0  0
 14 29  1  0  0  0
 14 30  1  0  0  0
 14 31  1  0  0  0
M  CHG  2  14   1  15  -1
M  END
$$$$
BR010002
  SciTegic05062102053D

 37 37  0  0  1  0            999 V2000
    4.4406    5.1552    2.1061 C   0  0
    6.2885    5.0833    0.5514 C   0  0
    4.8926    6.3841    2.5867 C   0  0
    6.7405    6.3123    1.0319 C   0  0
    5.1385    4.5047    1.0885 C   0  0
    6.0426    6.9627    2.0496 C   0  0
    4.6612    3.2062    0.5809 C   0  0
    3.4107    2.7446    0.7283 C   0  0
    6.5126    8.2449    2.5496 C   0  0
    3.0367    1.4168    0.1632 C   0  0
    0.5619   -0.9068    2.3699 C   0  0
    8.2122    9.9022    2.3117 C   0  0
    1.0911   -0.1228   -0.0285 C   0  0
    1.2220   -1.2327    1.0187 C   0  0  2  0  0  0
    1.7164    1.1198    0.4163 N   0  0
    0.6839   -2.5004    0.4297 N   0  3
   -0.6723   -0.6459    2.3473 O   0  5
    5.9574    8.8927    3.4469 O   0  0
    3.8346    0.7099   -0.4439 O   0  0
    1.3538   -0.9391    3.3566 O   0  0
    7.6497    8.6500    1.9054 O   0  0
    3.5426    4.7165    2.5346 H   0  0
    6.8432    4.5885   -0.2422 H   0  0
    4.3407    6.8823    3.3796 H   0  0
    7.6376    6.7545    0.6061 H   0  0
    5.4010    2.6216    0.0389 H   0  0
    2.6434    3.3133    1.2428 H   0  0
    9.1102   10.1070    1.7236 H   0  0
    8.4613    9.8630    3.3751 H   0  0
    7.4789   10.6937    2.1402 H   0  0
    0.0325    0.0752   -0.2329 H   0  0
    1.5501   -0.4315   -0.9750 H   0  0
    2.2836   -1.4310    1.2144 H   0  0
    1.1590    1.7868    0.9292 H   0  0
    1.4356   -3.1799    0.3084 H   0  0
    0.2608   -2.3140   -0.4804 H   0  0
   -0.0249   -2.9019    1.0446 H   0  0
  1  3  2  0
  1  5  1  0
  2  4  1  0
  2  5  2  0
  3  6  1  0
  4  6  2  0
  5  7  1  0
  6  9  1  0
  7  8  2  0
  8 10  1  0
  9 18  2  0
  9 21  1  0
 10 15  1  0
 10 19  2  0
 11 14  1  0
 11 17  1  0
 11 20  2  0
 12 21  1  0
 13 14  1  0
 13 15  1  0
 14 16  1  0
  1 22  1  0
  2 23  1  0
  3 24  1  0
  4 25  1  0
  7 26  1  0
  8 27  1  0
 12 28  1  0
 12 29  1  0
 12 30  1  0
 13 31  1  0
 13 32  1  0
 14 33  1  0
 15 34  1  0
 16 35  1  0
 16 36  1  0
 16 37  1  0
M  CHG  2  16   1  17  -1
M  END
> <Name>
BR010002

$$$$
BR010003
  SciTegic05062102053D

 32 32  0  0  1  0            999 V2000
    6.5029    8.2241    2.5385 C   0  0
    4.8923    6.3847    2.5858 C   0  0
    6.7396    6.3130    1.0304 C   0  0
    4.4407    5.1553    2.1061 C   0  0
    6.2880    5.0836    0.5507 C   0  0
    6.0418    6.9636    2.0480 C   0  0
    5.1385    4.5047    1.0885 C   0  0
    4.6612    3.2062    0.5809 C   0  0
    3.4107    2.7446    0.7283 C   0  0
    3.0367    1.4168    0.1632 C   0  0
    0.5619   -0.9068    2.3699 C   0  0
    1.0911   -0.1228   -0.0285 C   0  0
    1.2220   -1.2327    1.0187 C   0  0  2  0  0  0
    6.8775    9.2477    2.9368 N   0  0
    1.7164    1.1198    0.4163 N   0  0
    0.6839   -2.5004    0.4297 N   0  3
   -0.6723   -0.6459    2.3473 O   0  5
    3.8346    0.7099   -0.4439 O   0  0
    1.3538   -0.9391    3.3566 O   0  0
    4.3379    6.8802    3.3792 H   0  0
    7.6367    6.7527    0.6007 H   0  0
    3.5429    4.7169    2.5352 H   0  0
    6.8427    4.5898   -0.2437 H   0  0
    5.4010    2.6216    0.0389 H   0  0
    2.6434    3.3133    1.2428 H   0  0
    0.0325    0.0752   -0.2329 H   0  0
    1.5501   -0.4315   -0.9750 H   0  0
    2.2836   -1.4310    1.2144 H   0  0
    1.1590    1.7868    0.9292 H   0  0
    1.4356   -3.1799    0.3084 H   0  0
    0.2608   -2.3140   -0.4804 H   0  0
   -0.0249   -2.9019    1.0446 H   0  0
  1  6  1  0
  1 14  3  0
  2  4  1  0
  2  6  2  0
  3  5  2  0
  3  6  1  0
  4  7  2  0
  5  7  1  0
  7  8  1  0
  8  9  2  0
  9 10  1  0
 10 15  1  0
 10 18  2  0
 11 13  1  0
 11 17  1  0
 11 19  2  0
 12 13  1  0
 12 15  1  0
 13 16  1  0
  2 20  1  0
  3 21  1  0
  4 22  1  0
  5 23  1  0
  8 24  1  0
  9 25  1  0
 12 26  1  0
 12 27  1  0
 13 28  1  0
 15 29  1  0
 16 30  1  0
 16 31  1  0
 16 32  1  0
M  CHG  2  16   1  17  -1
M  END
> <Name>
BR010003

$$$$
BR010004
  SciTegic05062102053D

 32 32  0  0  1  0            999 V2000
    5.6850    5.3035   -1.1819 C   0  0
    6.0218    6.9343    2.1371 C   0  0
    5.5357    5.9426    2.9890 C   0  0
    6.0662    6.7113    0.7609 C   0  0
    5.0941    4.7278    2.4648 C   0  0
    5.6246    5.4965    0.2366 C   0  0
    5.1385    4.5047    1.0885 C   0  0
    4.6612    3.2062    0.5809 C   0  0
    3.4107    2.7446    0.7283 C   0  0
    3.0367    1.4168    0.1632 C   0  0
    0.5619   -0.9068    2.3699 C   0  0
    1.0911   -0.1228   -0.0285 C   0  0
    1.2220   -1.2327    1.0187 C   0  0  2  0  0  0
    5.7339    5.1471   -2.3308 N   0  0
    1.7164    1.1198    0.4163 N   0  0
    0.6839   -2.5004    0.4297 N   0  3
   -0.6723   -0.6459    2.3473 O   0  5
    3.8346    0.7099   -0.4439 O   0  0
    1.3538   -0.9391    3.3566 O   0  0
    6.3667    7.8797    2.5456 H   0  0
    5.5019    6.1160    4.0607 H   0  0
    6.4498    7.4954    0.1119 H   0  0
    4.7182    3.9661    3.1443 H   0  0
    5.4010    2.6216    0.0389 H   0  0
    2.6434    3.3133    1.2428 H   0  0
    0.0325    0.0752   -0.2329 H   0  0
    1.5501   -0.4315   -0.9750 H   0  0
    2.2836   -1.4310    1.2144 H   0  0
    1.1590    1.7868    0.9292 H   0  0
    1.4356   -3.1799    0.3084 H   0  0
    0.2608   -2.3140   -0.4804 H   0  0
   -0.0249   -2.9019    1.0446 H   0  0
  1  6  1  0
  1 14  3  0
  2  3  2  0
  2  4  1  0
  3  5  1  0
  4  6  2  0
  5  7  2  0
  6  7  1  0
  7  8  1  0
  8  9  2  0
  9 10  1  0
 10 15  1  0
 10 18  2  0
 11 13  1  0
 11 17  1  0
 11 19  2  0
 12 13  1  0
 12 15  1  0
 13 16  1  0
  2 20  1  0
  3 21  1  0
  4 22  1  0
  5 23  1  0
  8 24  1  0
  9 25  1  0
 12 26  1  0
 12 27  1  0
 13 28  1  0
 15 29  1  0
 16 30  1  0
 16 31  1  0
 16 32  1  0
M  CHG  2  16   1  17  -1
M  END
> <Name>
BR010004

$$$$
BR010005
  SciTegic05062102053D

 31 31  0  0  1  0            999 V2000
    4.4395    5.1552    2.1074 C   0  0
    6.2921    5.0790    0.5584 C   0  0
    4.8914    6.3844    2.5874 C   0  0
    6.7440    6.3082    1.0385 C   0  0
    5.1399    4.5025    1.0929 C   0  0
    6.0437    6.9609    2.0530 C   0  0
    4.6624    3.2042    0.5849 C   0  0
    3.4107    2.7446    0.7283 C   0  0
    3.0367    1.4168    0.1632 C   0  0
    0.5506   -0.9009    2.3634 C   0  0
    1.0895   -0.1201   -0.0338 C   0  0
    1.2150   -1.2291    1.0149 C   0  0  2  0  0  0
    1.7151    1.1221    0.4120 N   0  0
    0.6771   -2.4966    0.4253 N   0  3
   -0.6831   -0.6382    2.3362 O   0  5
    3.8356    0.7081   -0.4404 O   0  0
    1.3390   -0.9334    3.3530 O   0  0
    6.6008    8.4773    2.6453 Cl  0  0
    3.5400    4.7176    2.5339 H   0  0
    6.8482    4.5818   -0.2328 H   0  0
    4.3351    6.8816    3.3779 H   0  0
    7.6436    6.7455    0.6126 H   0  0
    5.4033    2.6179    0.0460 H   0  0
    2.6424    3.3150    1.2395 H   0  0
    0.0319    0.0793   -0.2421 H   0  0
    1.5514   -0.4304   -0.9784 H   0  0
    2.2756   -1.4288    1.2146 H   0  0
    1.1569    1.7904    0.9222 H   0  0
    1.4282   -3.1773    0.3073 H   0  0
    0.2575   -2.3104   -0.4865 H   0  0
   -0.0345   -2.8964    1.0381 H   0  0
  1  3  2  0
  1  5  1  0
  2  4  1  0
  2  5  2  0
  3  6  1  0
  4  6  2  0
  5  7  1  0
  6 18  1  0
  7  8  2  0
  8  9  1  0
  9 13  1  0
  9 16  2  0
 10 12  1  0
 10 15  1  0
 10 17  2  0
 11 12  1  0
 11 13  1  0
 12 14  1  0
  1 19  1  0
  2 20  1  0
  3 21  1  0
  4 22  1  0
  7 23  1  0
  8 24  1  0
 11 25  1  0
 11 26  1  0
 12 27  1  0
 13 28  1  0
 14 29  1  0
 14 30  1  0
 14 31  1  0
M  CHG  2  14   1  15  -1
M  END
> <Name>
BR010005

$$$$
BR010006
  SciTegic05062102053D

 31 31  0  0  1  0            999 V2000
    4.4390    5.1547    2.1074 C   0  0
    6.2916    5.0799    0.5583 C   0  0
    4.8899    6.3843    2.5873 C   0  0
    6.7425    6.3096    1.0382 C   0  0
    5.1399    4.5025    1.0929 C   0  0
    6.0416    6.9617    2.0528 C   0  0
    4.6624    3.2042    0.5849 C   0  0
    3.4107    2.7446    0.7283 C   0  0
    3.0367    1.4168    0.1632 C   0  0
    0.5506   -0.9009    2.3634 C   0  0
    1.0895   -0.1201   -0.0338 C   0  0
    1.2150   -1.2291    1.0149 C   0  0  2  0  0  0
    1.7151    1.1221    0.4120 N   0  0
    0.6771   -2.4966    0.4253 N   0  3
   -0.6831   -0.6382    2.3362 O   0  5
    3.8356    0.7081   -0.4404 O   0  0
    1.3390   -0.9334    3.3530 O   0  0
    6.6526    8.6282    2.7029 Br  0  0
    3.5394    4.7168    2.5331 H   0  0
    6.8477    4.5831   -0.2331 H   0  0
    4.3323    6.8788    3.3786 H   0  0
    7.6420    6.7455    0.6108 H   0  0
    5.4033    2.6179    0.0460 H   0  0
    2.6424    3.3150    1.2395 H   0  0
    0.0319    0.0793   -0.2421 H   0  0
    1.5514   -0.4304   -0.9784 H   0  0
    2.2756   -1.4288    1.2146 H   0  0
    1.1569    1.7904    0.9222 H   0  0
    1.4282   -3.1773    0.3073 H   0  0
    0.2575   -2.3104   -0.4865 H   0  0
   -0.0345   -2.8964    1.0381 H   0  0
  1  3  2  0
  1  5  1  0
  2  4  1  0
  2  5  2  0
  3  6  1  0
  4  6  2  0
  5  7  1  0
  6 18  1  0
  7  8  2  0
  8  9  1  0
  9 13  1  0
  9 16  2  0
 10 12  1  0
 10 15  1  0
 10 17  2  0
 11 12  1  0
 11 13  1  0
 12 14  1  0
  1 19  1  0
  2 20  1  0
  3 21  1  0
  4 22  1  0
  7 23  1  0
  8 24  1  0
 11 25  1  0
 11 26  1  0
 12 27  1  0
 13 28  1  0
 14 29  1  0
 14 30  1  0
 14 31  1  0
M  CHG  2  14   1  15  -1
M  END
> <Name>
BR010006

$$$$
BR010007
  SciTegic05062102053D

 33 33  0  0  1  0            999 V2000
    4.4404    5.1550    2.1061 C   0  0
    6.2884    5.0835    0.5515 C   0  0
    4.8922    6.3840    2.5867 C   0  0
    6.7402    6.3126    1.0320 C   0  0
    5.1385    4.5047    1.0885 C   0  0
    6.0421    6.9629    2.0496 C   0  0
    4.6612    3.2062    0.5809 C   0  0
    3.4107    2.7446    0.7283 C   0  0
    3.0367    1.4168    0.1632 C   0  0
    0.5619   -0.9068    2.3699 C   0  0
    1.0911   -0.1228   -0.0285 C   0  0
    1.2220   -1.2327    1.0187 C   0  0  2  0  0  0
    1.7164    1.1198    0.4163 N   0  0
    6.5020    8.2140    2.5388 N   0  3
    0.6839   -2.5004    0.4297 N   0  3
   -0.6723   -0.6459    2.3473 O   0  5
    5.8594    8.7822    3.4546 O   0  5
    3.8346    0.7099   -0.4439 O   0  0
    1.3538   -0.9391    3.3566 O   0  0
    7.5387    8.7171    2.0421 O   0  0
    3.5424    4.7164    2.5347 H   0  0
    6.8432    4.5887   -0.2421 H   0  0
    4.3387    6.8803    3.3801 H   0  0
    7.6379    6.7527    0.6046 H   0  0
    5.4010    2.6216    0.0389 H   0  0
    2.6434    3.3133    1.2428 H   0  0
    0.0325    0.0752   -0.2329 H   0  0
    1.5501   -0.4315   -0.9750 H   0  0
    2.2836   -1.4310    1.2144 H   0  0
    1.1590    1.7868    0.9292 H   0  0
    1.4356   -3.1799    0.3084 H   0  0
    0.2608   -2.3140   -0.4804 H   0  0
   -0.0249   -2.9019    1.0446 H   0  0
  1  3  2  0
  1  5  1  0
  2  4  1  0
  2  5  2  0
  3  6  1  0
  4  6  2  0
  5  7  1  0
  6 14  1  0
  7  8  2  0
  8  9  1  0
  9 13  1  0
  9 18  2  0
 10 12  1  0
 10 16  1  0
 10 19  2  0
 11 12  1  0
 11 13  1  0
 12 15  1  0
 14 17  1  0
 14 20  2  0
  1 21  1  0
  2 22  1  0
  3 23  1  0
  4 24  1  0
  7 25  1  0
  8 26  1  0
 11 27  1  0
 11 28  1  0
 12 29  1  0
 13 30  1  0
 15 31  1  0
 15 32  1  0
 15 33  1  0
M  CHG  4  14   1  15   1  16  -1  17  -1
M  END
> <Name>
BR010007

$$$$
BR010008
  SciTegic05062102053D

 33 33  0  0  1  0            999 V2000
    5.5380    5.9470    2.9852 C   0  0
    6.0237    6.9365    2.1305 C   0  0
    5.0955    4.7310    2.4642 C   0  0
    6.0667    6.7102    0.7548 C   0  0
    5.1385    4.5047    1.0885 C   0  0
    5.6241    5.4943    0.2338 C   0  0
    4.6612    3.2062    0.5809 C   0  0
    3.4107    2.7446    0.7283 C   0  0
    3.0367    1.4168    0.1632 C   0  0
    0.5619   -0.9068    2.3699 C   0  0
    1.0911   -0.1228   -0.0285 C   0  0
    1.2220   -1.2327    1.0187 C   0  0  2  0  0  0
    1.7164    1.1198    0.4163 N   0  0
    5.6791    5.2970   -1.1752 N   0  3
    0.6839   -2.5004    0.4297 N   0  3
   -0.6723   -0.6459    2.3473 O   0  5
    6.7147    4.8002   -1.6757 O   0  5
    3.8346    0.7099   -0.4439 O   0  0
    1.3538   -0.9391    3.3566 O   0  0
    4.6901    5.6261   -1.8703 O   0  0
    5.5040    6.1238    4.0562 H   0  0
    6.3686    7.8829    2.5366 H   0  0
    4.7204    3.9706    3.1452 H   0  0
    6.4481    7.4910    0.1013 H   0  0
    5.4010    2.6216    0.0389 H   0  0
    2.6434    3.3133    1.2428 H   0  0
    0.0325    0.0752   -0.2329 H   0  0
    1.5501   -0.4315   -0.9750 H   0  0
    2.2836   -1.4310    1.2144 H   0  0
    1.1590    1.7868    0.9292 H   0  0
    1.4356   -3.1799    0.3084 H   0  0
    0.2608   -2.3140   -0.4804 H   0  0
   -0.0249   -2.9019    1.0446 H   0  0
  1  2  2  0
  1  3  1  0
  2  4  1  0
  3  5  2  0
  4  6  2  0
  5  6  1  0
  5  7  1  0
  6 14  1  0
  7  8  2  0
  8  9  1  0
  9 13  1  0
  9 18  2  0
 10 12  1  0
 10 16  1  0
 10 19  2  0
 11 12  1  0
 11 13  1  0
 12 15  1  0
 14 17  1  0
 14 20  2  0
  1 21  1  0
  2 22  1  0
  3 23  1  0
  4 24  1  0
  7 25  1  0
  8 26  1  0
 11 27  1  0
 11 28  1  0
 12 29  1  0
 13 30  1  0
 15 31  1  0
 15 32  1  0
 15 33  1  0
M  CHG  4  14   1  15   1  16  -1  17  -1
M  END
> <Name>
BR010008

$$$$
BR010009
  SciTegic05062102053D

 27 28  0  0  1  0            999 V2000
   -1.9709    0.7122    0.5305 C   0  0
   -1.0272   -0.2855    0.2116 C   0  0
   -3.3004    0.3816    0.8079 C   0  0
   -1.3943   -1.6334    0.1641 C   0  0
   -3.6400   -0.9546    0.7552 C   0  0
   -2.7114   -1.9363    0.4418 C   0  0
   -4.9275   -1.6070    0.9896 C   0  0
   -3.3922   -3.2307    0.4714 C   0  0
   -6.0970   -3.4725    3.4531 C   0  0
   -5.7252   -3.9702    0.9509 C   0  0
   -5.7796   -4.5257    2.3771 C   0  0  2  0  0  0
   -4.7007   -2.9552    0.8066 N   0  0
   -6.7593   -5.6584    2.4032 N   0  3
   -7.1826   -2.8426    3.3241 O   0  5
   -5.9499   -1.0159    1.2833 O   0  0
   -2.8455   -4.2922    0.2359 O   0  0
   -5.2121   -3.3640    4.3513 O   0  0
   -1.6576    1.7527    0.5604 H   0  0
    0.0000    0.0000   -0.0002 H   0  0
   -4.0256    1.1489    1.0525 H   0  0
   -0.6688   -2.3998   -0.0811 H   0  0
   -6.6922   -3.5275    0.6851 H   0  0
   -5.5304   -4.7750    0.2322 H   0  0
   -4.8112   -4.9731    2.6351 H   0  0
   -6.2734   -6.5478    2.2834 H   0  0
   -7.4399   -5.5527    1.6499 H   0  0
   -7.2565   -5.6740    3.2944 H   0  0
  1  2  1  0
  1  3  2  0
  2  4  2  0
  3  5  1  0
  4  6  1  0
  5  6  2  0
  5  7  1  0
  6  8  1  0
  7 12  1  0
  7 15  2  0
  8 12  1  0
  8 16  2  0
  9 11  1  0
  9 14  1  0
  9 17  2  0
 10 11  1  0
 10 12  1  0
 11 13  1  0
  1 18  1  0
  2 19  1  0
  3 20  1  0
  4 21  1  0
 10 22  1  0
 10 23  1  0
 11 24  1  0
 13 25  1  0
 13 26  1  0
 13 27  1  0
M  CHG  2  13   1  14  -1
M  END
> <Name>
BR010009

$$$$
BR010010
  SciTegic05062102053D

 29 30  0  0  1  0            999 V2000
   -1.9709    0.7122    0.5305 C   0  0
   -3.3004    0.3816    0.8079 C   0  0
   -1.0272   -0.2855    0.2116 C   0  0
   -3.6400   -0.9546    0.7552 C   0  0
   -2.7114   -1.9363    0.4418 C   0  0
   -1.3943   -1.6334    0.1641 C   0  0
   -4.9275   -1.6070    0.9896 C   0  0
   -3.3922   -3.2307    0.4714 C   0  0
   -5.5843   -4.6967   -1.5188 C   0  0
   -5.7253   -3.9703    0.9509 C   0  0
   -6.4758   -4.2124   -0.3619 C   0  0  2  0  0  0
   -4.7007   -2.9552    0.8066 N   0  0
   -0.4316   -2.6233   -0.1587 N   0  3
   -7.6002   -5.1645   -0.0918 N   0  3
   -4.9417   -5.7655   -1.3275 O   0  5
    0.2307   -3.1545    0.7664 O   0  5
   -5.9501   -1.0162    1.2834 O   0  0
   -2.8590   -4.2999    0.2385 O   0  0
   -5.6039   -3.9479   -2.5389 O   0  0
   -0.2662   -2.9437   -1.3615 O   0  0
   -1.6579    1.7527    0.5604 H   0  0
   -4.0255    1.1488    1.0524 H   0  0
   -0.0024    0.0142    0.0019 H   0  0
   -5.2488   -4.8990    1.2858 H   0  0
   -6.4211   -3.6619    1.7401 H   0  0
   -6.9559   -3.2811   -0.6888 H   0  0
   -8.4641   -4.6497    0.0821 H   0  0
   -7.3887   -5.7358    0.7272 H   0  0
   -7.7411   -5.7802   -0.8935 H   0  0
  1  2  2  0
  1  3  1  0
  2  4  1  0
  3  6  2  0
  4  5  2  0
  4  7  1  0
  5  6  1  0
  5  8  1  0
  6 13  1  0
  7 12  1  0
  7 17  2  0
  8 12  1  0
  8 18  2  0
  9 11  1  0
  9 15  1  0
  9 19  2  0
 10 11  1  0
 10 12  1  0
 11 14  1  0
 13 16  1  0
 13 20  2  0
  1 21  1  0
  2 22  1  0
  3 23  1  0
 10 24  1  0
 10 25  1  0
 11 26  1  0
 14 27  1  0
 14 28  1  0
 14 29  1  0
M  CHG  4  13   1  14   1  15  -1  16  -1
M  END
> <Name>
BR010010

$$$$
BR010011
  SciTegic05062102053D

 29 30  0  0  1  0            999 V2000
   -1.9709    0.7122    0.5305 C   0  0
   -3.3004    0.3816    0.8079 C   0  0
   -1.0272   -0.2855    0.2116 C   0  0
   -3.6400   -0.9546    0.7552 C   0  0
   -2.7114   -1.9363    0.4418 C   0  0
   -1.3943   -1.6334    0.1641 C   0  0
   -4.9275   -1.6070    0.9896 C   0  0
   -3.3922   -3.2307    0.4714 C   0  0
   -6.0971   -3.4727    3.4531 C   0  0
   -5.7254   -3.9704    0.9509 C   0  0
   -5.7798   -4.5258    2.3771 C   0  0  2  0  0  0
   -4.7007   -2.9552    0.8066 N   0  0
   -0.4462   -2.6177   -0.1551 N   0  0
   -6.7595   -5.6585    2.4033 N   0  3
   -7.1827   -2.8428    3.3241 O   0  5
   -5.9501   -1.0164    1.2839 O   0  0
   -2.8565   -4.2986    0.2384 O   0  0
   -5.2122   -3.3641    4.3514 O   0  0
   -1.6578    1.7528    0.5595 H   0  0
   -4.0256    1.1485    1.0531 H   0  0
   -0.0017    0.0114    0.0019 H   0  0
   -6.6923   -3.5277    0.6851 H   0  0
   -5.5306   -4.7751    0.2323 H   0  0
   -4.8114   -4.9733    2.6352 H   0  0
    0.4887   -2.3445   -0.3960 H   0  0
   -0.7345   -3.5757   -0.2316 H   0  0
   -6.2736   -6.5479    2.2831 H   0  0
   -7.4402   -5.5527    1.6501 H   0  0
   -7.2565   -5.6743    3.2946 H   0  0
  1  2  2  0
  1  3  1  0
  2  4  1  0
  3  6  2  0
  4  5  2  0
  4  7  1  0
  5  6  1  0
  5  8  1  0
  6 13  1  0
  7 12  1  0
  7 16  2  0
  8 12  1  0
  8 17  2  0
  9 11  1  0
  9 15  1  0
  9 18  2  0
 10 11  1  0
 10 12  1  0
 11 14  1  0
  1 19  1  0
  2 20  1  0
  3 21  1  0
 10 22  1  0
 10 23  1  0
 11 24  1  0
 13 25  1  0
 13 26  1  0
 14 27  1  0
 14 28  1  0
 14 29  1  0
M  CHG  2  14   1  15  -1
M  END
> <Name>
BR010011

$$$$
BR010012
  SciTegic05062102053D

 32 32  0  0  1  0            999 V2000
   -1.2004    4.1367    5.0806 C   0  0
   -2.1799    3.6563    4.2115 C   0  0
    0.1422    4.1061    4.7035 C   0  0
   -1.8169    3.1452    2.9655 C   0  0
    0.5053    3.5950    3.4575 C   0  0
   -0.4743    3.1146    2.5884 C   0  0
    3.3374   -2.2898    0.6615 C   0  0
    0.4847   -3.1515   -0.2077 C   0  0
    0.5315    0.5148    0.2261 C   0  0
   -0.0830    2.5647    1.2483 C   0  0
    2.6597   -1.8029   -0.6072 C   0  0
    1.1337   -1.7866   -0.5098 C   0  0  2  0  0  0
    4.7106   -2.3192    0.5437 N   0  0
    0.7339   -0.8216    0.4921 N   0  0
   -0.5795   -3.1301    0.4704 O   0  5
    2.7351   -2.6095    1.6822 O   0  0
    1.1123   -4.1437   -0.6804 O   0  0
    0.6586    1.0566   -0.8670 O   0  0
    0.1628    1.1595    1.3732 O   0  0
   -1.4834    4.5359    6.0502 H   0  0
   -3.2255    3.6810    4.5044 H   0  0
    0.9050    4.4811    5.3795 H   0  0
   -2.5869    2.7729    2.2949 H   0  0
    1.5538    3.5751    3.1723 H   0  0
   -0.8782    2.7241    0.5121 H   0  0
    0.8227    3.0562    0.8769 H   0  0
    3.0294   -0.7870   -0.8004 H   0  0
    2.9912   -2.4254   -1.4477 H   0  0
    0.7161   -1.4256   -1.4583 H   0  0
    5.1664   -2.0358   -0.3173 H   0  0
    5.3147   -2.6200    1.3019 H   0  0
    0.5951   -1.1472    1.4424 H   0  0
  1  2  2  0
  1  3  1  0
  2  4  1  0
  3  5  2  0
  4  6  2  0
  5  6  1  0
  6 10  1  0
  7 11  1  0
  7 13  1  0
  7 16  2  0
  8 12  1  0
  8 15  1  0
  8 17  2  0
  9 14  1  0
  9 18  2  0
  9 19  1  0
 10 19  1  0
 11 12  1  0
 12 14  1  0
  1 20  1  0
  2 21  1  0
  3 22  1  0
  4 23  1  0
  5 24  1  0
 10 25  1  0
 10 26  1  0
 11 27  1  0
 11 28  1  0
 12 29  1  0
 13 30  1  0
 13 31  1  0
 14 32  1  0
M  CHG  1  15  -1
M  END
> <Name>
BR010012

$$$$
BR010013
  SciTegic05062102053D

 29 29  0  0  1  0            999 V2000
   -2.0605   -0.9504   -1.8977 C   0  0
    8.4899   -1.7971   -1.9606 C   0  0
    8.1124   -0.6333   -1.2908 C   0  0
    7.6304   -2.3736   -2.8957 C   0  0
    6.8753   -0.0461   -1.5560 C   0  0
    6.3933   -1.7864   -3.1609 C   0  0
    6.0157   -0.6226   -2.4911 C   0  0
   -0.2469   -0.4923    0.4717 C   0  0
    2.4352   -0.0596   -2.0284 C   0  0
   -0.6269   -1.2813   -1.9376 C   0  0
    4.6847    0.0084   -2.7767 C   0  0
    0.1908   -0.3867   -1.0004 C   0  0  2  0  0  0
   -3.1911   -0.6910   -1.8671 N   0  0
    1.6027   -0.6713   -1.1150 N   0  0
   -0.1635   -1.6576    0.9583 O   0  5
   -0.6413    0.5743    1.0194 O   0  0
    2.0992    0.7887   -2.8481 O   0  0
    3.7063   -0.5411   -1.8870 O   0  0
    9.4538   -2.2535   -1.7549 H   0  0
    8.7821   -0.1837   -0.5634 H   0  0
    7.9244   -3.2791   -3.4182 H   0  0
    6.5895    0.8605   -1.0291 H   0  0
    5.7300   -2.2427   -3.8910 H   0  0
   -0.2650   -1.1887   -2.9692 H   0  0
   -0.5032   -2.3328   -1.6509 H   0  0
    4.7270    1.0937   -2.6346 H   0  0
    4.3783   -0.1838   -3.8106 H   0  0
    0.0667    0.6609   -1.3054 H   0  0
    2.0046   -1.3608   -0.4873 H   0  0
  1 10  1  0
  1 13  3  0
  2  3  2  0
  2  4  1  0
  3  5  1  0
  4  6  2  0
  5  7  2  0
  6  7  1  0
  7 11  1  0
  8 12  1  0
  8 15  1  0
  8 16  2  0
  9 14  1  0
  9 17  2  0
  9 18  1  0
 10 12  1  0
 11 18  1  0
 12 14  1  0
  2 19  1  0
  3 20  1  0
  4 21  1  0
  5 22  1  0
  6 23  1  0
 10 24  1  0
 10 25  1  0
 11 26  1  0
 11 27  1  0
 12 28  1  0
 14 29  1  0
M  CHG  1  15  -1
M  END
> <Name>
BR010013

$$$$
BR010014
  SciTegic05062102053D

 32 33  0  0  1  0            999 V2000
   -3.7069    0.6113    6.4533 C   0  0
   -3.8659    1.6243    5.5078 C   0  0
   -2.5669   -0.1922    6.4297 C   0  0
   -2.8850    1.8338    4.5384 C   0  0
   -1.5860    0.0173    5.4603 C   0  0
   -1.7450    1.0303    4.5147 C   0  0
    2.0418   -1.7072   -2.1047 C   0  0
   -0.9328   -0.5962   -2.0293 C   0  0
   -0.1115    0.5553    1.2810 C   0  0
   -0.6896    1.2549    3.4721 C   0  0
    1.2112   -1.5196   -0.8672 C   0  0
    0.1898   -0.3893   -1.0033 C   0  0  2  0  0  0
    2.9420   -2.5999   -3.8124 N   0  5
    2.0918   -2.8660   -2.7890 N   0  0
    2.8058   -0.7324   -2.6333 N   0  0
    3.3709   -1.3181   -3.7188 N   0  0
   -0.5208   -0.2616    0.2481 N   0  0
   -1.5846   -1.6708   -1.8850 O   0  5
   -1.0807    0.3187   -2.8868 O   0  0
    0.8872    1.2675    1.2784 O   0  0
   -0.9907    0.4560    2.3224 O   0  0
   -4.4701    0.4492    7.2089 H   0  0
   -4.7529    2.2507    5.5267 H   0  0
   -2.4422   -0.9803    7.1664 H   0  0
   -3.0175    2.6253    3.8055 H   0  0
   -0.7012   -0.6137    5.4495 H   0  0
   -0.6506    2.3084    3.1747 H   0  0
    0.2985    0.9765    3.8543 H   0  0
    0.6875   -2.4613   -0.6501 H   0  0
    1.8620   -1.3499    0.0011 H   0  0
    0.6942    0.5644   -1.2020 H   0  0
   -1.3698   -0.8040    0.3743 H   0  0
  1  2  2  0
  1  3  1  0
  2  4  1  0
  3  5  2  0
  4  6  2  0
  5  6  1  0
  6 10  1  0
  7 11  1  0
  7 14  2  0
  7 15  1  0
  8 12  1  0
  8 18  1  0
  8 19  2  0
  9 17  1  0
  9 20  2  0
  9 21  1  0
 10 21  1  0
 11 12  1  0
 12 17  1  0
 13 14  1  0
 13 16  1  0
 15 16  2  0
  1 22  1  0
  2 23  1  0
  3 24  1  0
  4 25  1  0
  5 26  1  0
 10 27  1  0
 10 28  1  0
 11 29  1  0
 11 30  1  0
 12 31  1  0
 17 32  1  0
M  CHG  2  13  -1  18  -1
M  END
> <Name>
BR010014

$$$$
BR010015
  SciTegic05062102053D

 31 31  0  0  1  0            999 V2000
   -2.8378   -4.8865    3.5430 C   0  0
   -1.6556   -5.3253    2.9469 C   0  0
   -3.4820   -3.7477    3.0592 C   0  0
   -1.1174   -4.6253    1.8671 C   0  0
   -2.9437   -3.0477    1.9794 C   0  0
   -1.7614   -3.4865    1.3834 C   0  0
    3.3107    1.1749    0.3282 C   0  0
    0.3219   -0.9572   -0.2332 C   0  0
   -1.1829   -2.7329    0.2220 C   0  0
    1.1020    2.1690   -0.6316 C   0  0
    1.9439    0.9291   -0.3429 C   0  0  2  0  0  0
    1.1493   -0.0431    0.3796 N   0  0
    0.7800    2.8841    0.6301 N   0  3
    3.7137    0.2334    1.0716 O   0  5
    3.8622    2.2840    0.0841 O   0  0
    0.1479   -1.0719   -1.4420 O   0  0
   -0.2868   -1.7305    0.7149 O   0  0
   -3.2575   -5.4325    4.3829 H   0  0
   -1.1545   -6.2127    3.3227 H   0  0
   -4.4030   -3.4065    3.5224 H   0  0
   -0.1957   -4.9745    1.4090 H   0  0
   -3.4524   -2.1615    1.6094 H   0  0
   -0.6342   -3.4047   -0.4468 H   0  0
   -1.9752   -2.2511   -0.3610 H   0  0
    0.1476    1.9231   -1.1068 H   0  0
    1.6412    2.8849   -1.2604 H   0  0
    2.1758    0.4562   -1.3060 H   0  0
    1.2056   -0.0508    1.3915 H   0  0
   -0.0531    3.4698    0.5153 H   0  0
    1.5570    3.4892    0.9144 H   0  0
    0.5997    2.2203    1.3899 H   0  0
  1  2  2  0
  1  3  1  0
  2  4  1  0
  3  5  2  0
  4  6  2  0
  5  6  1  0
  6  9  1  0
  7 11  1  0
  7 14  1  0
  7 15  2  0
  8 12  1  0
  8 16  2  0
  8 17  1  0
  9 17  1  0
 10 11  1  0
 10 13  1  0
 11 12  1  0
  1 18  1  0
  2 19  1  0
  3 20  1  0
  4 21  1  0
  5 22  1  0
  9 23  1  0
  9 24  1  0
 10 25  1  0
 10 26  1  0
 11 27  1  0
 12 28  1  0
 13 29  1  0
 13 30  1  0
 13 31  1  0
M  CHG  2  13   1  14  -1
M  END
> <Name>
BR010015

$$$$
BR010016
  SciTegic05062102053D

 46 47  0  0  1  0            999 V2000
   -0.2133    9.1709   -1.0038 C   0  0
   -6.8333    2.5051    5.0224 C   0  0
    0.8223    8.2605   -1.2140 C   0  0
   -1.4623    8.7200   -0.5765 C   0  0
   -6.0891    1.6104    5.7913 C   0  0
   -6.6467    2.5607    3.6412 C   0  0
    0.6091    6.8992   -0.9972 C   0  0
   -1.6756    7.3587   -0.3597 C   0  0
   -5.1582    0.7713    5.1790 C   0  0
   -5.7157    1.7217    3.0289 C   0  0
   -0.6399    6.4483   -0.5700 C   0  0
   -4.9714    0.8269    3.7977 C   0  0
   -0.8658    5.0102   -0.3408 C   0  0
    0.1072    4.1101   -0.1367 C   0  0
   -0.2404    2.6789    0.0947 C   0  0
    1.9287    0.6605    2.8847 C   0  0
   -1.6796   -0.1184    2.5246 C   0  0
   -3.9700   -0.0752    3.1385 C   0  0
    0.8324    0.4762    0.5302 C   0  0
    0.7423    0.1769    2.0265 C   0  0  2  0  0  0
    0.8885    1.9001    0.2854 N   0  0
   -0.5256    0.6325    2.5573 N   0  0
    1.6656    0.9607    4.0825 O   0  5
   -1.3987    2.2753    0.1081 O   0  0
    3.0354    0.7225    2.2743 O   0  0
   -1.7899   -1.2459    2.0543 O   0  0
   -2.6997    0.5850    3.1008 O   0  0
   -0.0469   10.2309   -1.1714 H   0  0
   -7.5592    3.1574    5.4992 H   0  0
    1.7953    8.6115   -1.5456 H   0  0
   -2.2685    9.4288   -0.4116 H   0  0
   -6.2351    1.5662    6.8666 H   0  0
   -7.2267    3.2564    3.0421 H   0  0
    1.4262    6.2017   -1.1655 H   0  0
   -2.6547    7.0227   -0.0267 H   0  0
   -4.5826    0.0774    5.7860 H   0  0
   -5.5769    1.7721    1.9521 H   0  0
   -1.9090    4.7029   -0.3251 H   0  0
    1.1557    4.3880   -0.1227 H   0  0
   -3.8673   -1.0160    3.6900 H   0  0
   -4.2798   -0.3168    2.1160 H   0  0
    1.7192    0.0037    0.0940 H   0  0
   -0.0418    0.0676    0.0110 H   0  0
    0.7287   -0.9147    2.1421 H   0  0
    1.7986    2.3501    0.2517 H   0  0
   -0.5659    1.5549    2.9760 H   0  0
  1  3  2  0
  1  4  1  0
  2  5  2  0
  2  6  1  0
  3  7  1  0
  4  8  2  0
  5  9  1  0
  6 10  2  0
  7 11  2  0
  8 11  1  0
  9 12  2  0
 10 12  1  0
 11 13  1  0
 12 18  1  0
 13 14  2  0
 14 15  1  0
 15 21  1  0
 15 24  2  0
 16 20  1  0
 16 23  1  0
 16 25  2  0
 17 22  1  0
 17 26  2  0
 17 27  1  0
 18 27  1  0
 19 20  1  0
 19 21  1  0
 20 22  1  0
  1 28  1  0
  2 29  1  0
  3 30  1  0
  4 31  1  0
  5 32  1  0
  6 33  1  0
  7 34  1  0
  8 35  1  0
  9 36  1  0
 10 37  1  0
 13 38  1  0
 14 39  1  0
 18 40  1  0
 18 41  1  0
 19 42  1  0
 19 43  1  0
 20 44  1  0
 21 45  1  0
 22 46  1  0
M  CHG  1  23  -1
M  END
> <Name>
BR010016

$$$$
BR010017
  SciTegic05062102053D

 52 53  0  0  1  0            999 V2000
   -7.0341    1.9323    4.8957 C   0  0
   -6.2358    1.1000    5.6804 C   0  0
   -6.8309    1.9964    3.5172 C   0  0
    0.1438    6.8569   -1.0336 C   0  0
   -2.1787    7.1439   -0.4331 C   0  0
    0.2563    8.2295   -1.2545 C   0  0
   -2.0662    8.5166   -0.6539 C   0  0
   -5.2342    0.3320    5.0865 C   0  0
   -5.8294    1.2284    2.9234 C   0  0
   -1.0737    6.3140   -0.6230 C   0  0
   -0.8486    9.0594   -1.0646 C   0  0
   -5.0310    0.3962    3.7080 C   0  0
   -1.1929    4.8639   -0.3898 C   0  0
   -0.1573    4.0414   -0.1664 C   0  0
   -0.7305   10.4907   -1.2933 C   0  0
   -0.3983    2.5889    0.0671 C   0  0
    1.8750    0.7531    2.9000 C   0  0
   -1.6574   -0.3003    2.4895 C   0  0
   -1.9247   12.5557   -1.2511 C   0  0
   -3.9536   -0.4296    3.0686 C   0  0
    0.8324    0.4762    0.5302 C   0  0
    0.7423    0.1769    2.0265 C   0  0  2  0  0  0
    0.7836    1.8992    0.2789 N   0  0
   -0.5646    0.5365    2.5358 N   0  0
    1.5714    1.0371    4.0921 O   0  5
    0.3082   11.0584   -1.6565 O   0  0
   -1.5226    2.0981    0.0652 O   0  0
    2.9830    0.8969    2.3061 O   0  0
   -1.6742   -1.4348    2.0235 O   0  0
   -1.9132   11.1372   -1.0583 O   0  0
   -2.7370    0.3254    3.0466 O   0  0
   -7.8148    2.5292    5.3581 H   0  0
   -6.3946    1.0491    6.7536 H   0  0
   -7.4530    2.6434    2.9059 H   0  0
    1.0138    6.2226   -1.1857 H   0  0
   -3.1344    6.7356   -0.1131 H   0  0
    1.2101    8.6418   -1.5739 H   0  0
   -2.9334    9.1543   -0.5027 H   0  0
   -4.6169   -0.3135    5.7058 H   0  0
   -5.6782    1.2849    1.8486 H   0  0
   -2.2097    4.4779   -0.3882 H   0  0
    0.8666    4.3986   -0.1380 H   0  0
   -2.9215   12.9460   -1.0317 H   0  0
   -1.6506   12.7862   -2.2837 H   0  0
   -1.1997   13.0125   -0.5732 H   0  0
   -3.7881   -1.3575    3.6265 H   0  0
   -4.2283   -0.6982    2.0428 H   0  0
    1.7592    0.0710    0.1099 H   0  0
    0.0000    0.0000    0.0000 H   0  0
    0.8102   -0.9121    2.1475 H   0  0
    1.6571    2.4173    0.2566 H   0  0
   -0.6817    1.4548    2.9490 H   0  0
  1  2  2  0
  1  3  1  0
  2  8  1  0
  3  9  2  0
  4  6  2  0
  4 10  1  0
  5  7  1  0
  5 10  2  0
  6 11  1  0
  7 11  2  0
  8 12  2  0
  9 12  1  0
 10 13  1  0
 11 15  1  0
 12 20  1  0
 13 14  2  0
 14 16  1  0
 15 26  2  0
 15 30  1  0
 16 23  1  0
 16 27  2  0
 17 22  1  0
 17 25  1  0
 17 28  2  0
 18 24  1  0
 18 29  2  0
 18 31  1  0
 19 30  1  0
 20 31  1  0
 21 22  1  0
 21 23  1  0
 22 24  1  0
  1 32  1  0
  2 33  1  0
  3 34  1  0
  4 35  1  0
  5 36  1  0
  6 37  1  0
  7 38  1  0
  8 39  1  0
  9 40  1  0
 13 41  1  0
 14 42  1  0
 19 43  1  0
 19 44  1  0
 19 45  1  0
 20 46  1  0
 20 47  1  0
 21 48  1  0
 21 49  1  0
 22 50  1  0
 23 51  1  0
 24 52  1  0
M  CHG  1  25  -1
M  END
> <Name>
BR010017

$$$$
BR010018
  SciTegic05062102053D

 47 48  0  0  1  0            999 V2000
    0.0076   10.5658   -1.2217 C   0  0
   -6.8333    2.5051    5.0224 C   0  0
   -6.0891    1.6104    5.7913 C   0  0
   -6.6467    2.5607    3.6412 C   0  0
    0.8228    8.2603   -1.2132 C   0  0
   -1.4615    8.7203   -0.5749 C   0  0
    0.6091    6.8990   -0.9971 C   0  0
   -1.6752    7.3589   -0.3588 C   0  0
   -5.1582    0.7713    5.1790 C   0  0
   -5.7157    1.7217    3.0289 C   0  0
   -0.2125    9.1710   -1.0021 C   0  0
   -0.6399    6.4483   -0.5700 C   0  0
   -4.9714    0.8269    3.7977 C   0  0
   -0.8658    5.0102   -0.3408 C   0  0
    0.1072    4.1101   -0.1367 C   0  0
   -0.2404    2.6789    0.0947 C   0  0
    1.9287    0.6605    2.8847 C   0  0
   -1.6796   -0.1184    2.5246 C   0  0
   -3.9700   -0.0752    3.1385 C   0  0
    0.8324    0.4762    0.5302 C   0  0
    0.7423    0.1769    2.0265 C   0  0  2  0  0  0
    0.1864   11.6985   -1.4001 N   0  0
    0.8885    1.9001    0.2854 N   0  0
   -0.5256    0.6325    2.5573 N   0  0
    1.6656    0.9607    4.0825 O   0  5
   -1.3987    2.2753    0.1081 O   0  0
    3.0354    0.7225    2.2743 O   0  0
   -1.7899   -1.2459    2.0543 O   0  0
   -2.6997    0.5850    3.1008 O   0  0
   -7.5592    3.1574    5.4992 H   0  0
   -6.2351    1.5662    6.8666 H   0  0
   -7.2267    3.2564    3.0421 H   0  0
    1.8018    8.5970   -1.5460 H   0  0
   -2.2777    9.4186   -0.4052 H   0  0
    1.4260    6.2015   -1.1657 H   0  0
   -2.6544    7.0238   -0.0248 H   0  0
   -4.5826    0.0774    5.7860 H   0  0
   -5.5769    1.7721    1.9521 H   0  0
   -1.9090    4.7029   -0.3251 H   0  0
    1.1557    4.3880   -0.1227 H   0  0
   -3.8673   -1.0160    3.6900 H   0  0
   -4.2798   -0.3168    2.1160 H   0  0
    1.7192    0.0037    0.0940 H   0  0
   -0.0418    0.0676    0.0110 H   0  0
    0.7287   -0.9147    2.1421 H   0  0
    1.7986    2.3501    0.2517 H   0  0
   -0.5659    1.5549    2.9760 H   0  0
  1 11  1  0
  1 22  3  0
  2  3  2  0
  2  4  1  0
  3  9  1  0
  4 10  2  0
  5  7  1  0
  5 11  2  0
  6  8  2  0
  6 11  1  0
  7 12  2  0
  8 12  1  0
  9 13  2  0
 10 13  1  0
 12 14  1  0
 13 19  1  0
 14 15  2  0
 15 16  1  0
 16 23  1  0
 16 26  2  0
 17 21  1  0
 17 25  1  0
 17 27  2  0
 18 24  1  0
 18 28  2  0
 18 29  1  0
 19 29  1  0
 20 21  1  0
 20 23  1  0
 21 24  1  0
  2 30  1  0
  3 31  1  0
  4 32  1  0
  5 33  1  0
  6 34  1  0
  7 35  1  0
  8 36  1  0
  9 37  1  0
 10 38  1  0
 14 39  1  0
 15 40  1  0
 19 41  1  0
 19 42  1  0
 20 43  1  0
 20 44  1  0
 21 45  1  0
 23 46  1  0
 24 47  1  0
M  CHG  1  25  -1
M  END
> <Name>
BR010018

$$$$
BR010019
  SciTegic05062102053D

 47 48  0  0  1  0            999 V2000
   -1.9126    7.0714    1.4507 C   0  0
   -6.8333    2.5051    5.0224 C   0  0
   -0.1631    9.1490   -1.0814 C   0  0
    0.3420    8.1761   -1.9438 C   0  0
   -6.0891    1.6104    5.7913 C   0  0
   -6.6467    2.5607    3.6412 C   0  0
   -0.9066    8.7715    0.0369 C   0  0
    0.1036    6.8257   -1.6882 C   0  0
   -5.1582    0.7713    5.1790 C   0  0
   -5.7157    1.7217    3.0289 C   0  0
   -1.1450    7.4212    0.2925 C   0  0
   -0.6399    6.4483   -0.5700 C   0  0
   -4.9714    0.8269    3.7977 C   0  0
   -0.8658    5.0102   -0.3408 C   0  0
    0.1072    4.1101   -0.1367 C   0  0
   -0.2404    2.6789    0.0947 C   0  0
    1.9287    0.6605    2.8847 C   0  0
   -1.6796   -0.1184    2.5246 C   0  0
   -3.9700   -0.0752    3.1385 C   0  0
    0.8324    0.4762    0.5302 C   0  0
    0.7423    0.1769    2.0265 C   0  0  2  0  0  0
   -2.5343    6.7881    2.3889 N   0  0
    0.8885    1.9001    0.2854 N   0  0
   -0.5256    0.6325    2.5573 N   0  0
    1.6656    0.9607    4.0825 O   0  5
   -1.3987    2.2753    0.1081 O   0  0
    3.0354    0.7225    2.2743 O   0  0
   -1.7899   -1.2459    2.0543 O   0  0
   -2.6997    0.5850    3.1008 O   0  0
   -7.5592    3.1574    5.4992 H   0  0
    0.0217   10.2004   -1.2812 H   0  0
    0.9203    8.4701   -2.8149 H   0  0
   -6.2351    1.5662    6.8666 H   0  0
   -7.2267    3.2564    3.0421 H   0  0
   -1.2940    9.5439    0.6976 H   0  0
    0.5055    6.0810   -2.3716 H   0  0
   -4.5826    0.0774    5.7860 H   0  0
   -5.5769    1.7721    1.9521 H   0  0
   -1.9090    4.7029   -0.3251 H   0  0
    1.1557    4.3880   -0.1227 H   0  0
   -3.8673   -1.0160    3.6900 H   0  0
   -4.2798   -0.3168    2.1160 H   0  0
    1.7192    0.0037    0.0940 H   0  0
   -0.0418    0.0676    0.0110 H   0  0
    0.7287   -0.9147    2.1421 H   0  0
    1.7986    2.3501    0.2517 H   0  0
   -0.5659    1.5549    2.9760 H   0  0
  1 11  1  0
  1 22  3  0
  2  5  2  0
  2  6  1  0
  3  4  2  0
  3  7  1  0
  4  8  1  0
  5  9  1  0
  6 10  2  0
  7 11  2  0
  8 12  2  0
  9 13  2  0
 10 13  1  0
 11 12  1  0
 12 14  1  0
 13 19  1  0
 14 15  2  0
 15 16  1  0
 16 23  1  0
 16 26  2  0
 17 21  1  0
 17 25  1  0
 17 27  2  0
 18 24  1  0
 18 28  2  0
 18 29  1  0
 19 29  1  0
 20 21  1  0
 20 23  1  0
 21 24  1  0
  2 30  1  0
  3 31  1  0
  4 32  1  0
  5 33  1  0
  6 34  1  0
  7 35  1  0
  8 36  1  0
  9 37  1  0
 10 38  1  0
 14 39  1  0
 15 40  1  0
 19 41  1  0
 19 42  1  0
 20 43  1  0
 20 44  1  0
 21 45  1  0
 23 46  1  0
 24 47  1  0
M  CHG  1  25  -1
M  END
> <Name>
BR010019

$$$$
BR010020
  SciTegic05062102053D

 46 47  0  0  1  0            999 V2000
   -6.8333    2.5051    5.0224 C   0  0
   -6.0891    1.6104    5.7913 C   0  0
   -6.6467    2.5607    3.6412 C   0  0
    0.6091    6.8991   -0.9972 C   0  0
   -1.6753    7.3588   -0.3588 C   0  0
   -5.1582    0.7713    5.1790 C   0  0
   -5.7157    1.7217    3.0289 C   0  0
    0.8226    8.2605   -1.2133 C   0  0
   -1.4617    8.7202   -0.5749 C   0  0
   -0.6399    6.4483   -0.5700 C   0  0
   -4.9714    0.8269    3.7977 C   0  0
   -0.2127    9.1710   -1.0021 C   0  0
   -0.8658    5.0102   -0.3408 C   0  0
    0.1072    4.1101   -0.1367 C   0  0
   -0.2404    2.6789    0.0947 C   0  0
    1.9287    0.6605    2.8847 C   0  0
   -1.6796   -0.1184    2.5246 C   0  0
   -3.9700   -0.0752    3.1385 C   0  0
    0.8324    0.4762    0.5302 C   0  0
    0.7423    0.1769    2.0265 C   0  0  2  0  0  0
    0.8885    1.9001    0.2854 N   0  0
   -0.5256    0.6325    2.5573 N   0  0
    1.6656    0.9607    4.0825 O   0  5
   -1.3987    2.2753    0.1081 O   0  0
    3.0354    0.7225    2.2743 O   0  0
   -1.7899   -1.2459    2.0543 O   0  0
   -2.6997    0.5850    3.1008 O   0  0
    0.0511   10.8503   -1.2687 Cl  0  0
   -7.5592    3.1574    5.4992 H   0  0
   -6.2351    1.5662    6.8666 H   0  0
   -7.2267    3.2564    3.0421 H   0  0
    1.4254    6.2008   -1.1664 H   0  0
   -2.6541    7.0219   -0.0257 H   0  0
   -4.5826    0.0774    5.7860 H   0  0
   -5.5769    1.7721    1.9521 H   0  0
    1.8013    8.5972   -1.5456 H   0  0
   -2.2778    9.4182   -0.4064 H   0  0
   -1.9090    4.7029   -0.3251 H   0  0
    1.1557    4.3880   -0.1227 H   0  0
   -3.8673   -1.0160    3.6900 H   0  0
   -4.2798   -0.3168    2.1160 H   0  0
    1.7192    0.0037    0.0940 H   0  0
   -0.0418    0.0676    0.0110 H   0  0
    0.7287   -0.9147    2.1421 H   0  0
    1.7986    2.3501    0.2517 H   0  0
   -0.5659    1.5549    2.9760 H   0  0
  1  2  2  0
  1  3  1  0
  2  6  1  0
  3  7  2  0
  4  8  2  0
  4 10  1  0
  5  9  1  0
  5 10  2  0
  6 11  2  0
  7 11  1  0
  8 12  1  0
  9 12  2  0
 10 13  1  0
 11 18  1  0
 12 28  1  0
 13 14  2  0
 14 15  1  0
 15 21  1  0
 15 24  2  0
 16 20  1  0
 16 23  1  0
 16 25  2  0
 17 22  1  0
 17 26  2  0
 17 27  1  0
 18 27  1  0
 19 20  1  0
 19 21  1  0
 20 22  1  0
  1 29  1  0
  2 30  1  0
  3 31  1  0
  4 32  1  0
  5 33  1  0
  6 34  1  0
  7 35  1  0
  8 36  1  0
  9 37  1  0
 13 38  1  0
 14 39  1  0
 18 40  1  0
 18 41  1  0
 19 42  1  0
 19 43  1  0
 20 44  1  0
 21 45  1  0
 22 46  1  0
M  CHG  1  23  -1
M  END
> <Name>
BR010020

$$$$
BR010021
  SciTegic05062102053D

 46 47  0  0  1  0            999 V2000
   -6.8333    2.5051    5.0224 C   0  0
   -6.0891    1.6104    5.7913 C   0  0
   -6.6467    2.5607    3.6412 C   0  0
    0.6093    6.8985   -0.9972 C   0  0
   -1.6746    7.3594   -0.3582 C   0  0
   -5.1582    0.7713    5.1790 C   0  0
   -5.7157    1.7217    3.0289 C   0  0
    0.8238    8.2597   -1.2127 C   0  0
   -1.4601    8.7208   -0.5737 C   0  0
   -0.6399    6.4483   -0.5700 C   0  0
   -4.9714    0.8269    3.7977 C   0  0
   -0.2109    9.1709   -1.0009 C   0  0
   -0.8658    5.0102   -0.3408 C   0  0
    0.1072    4.1101   -0.1367 C   0  0
   -0.2404    2.6789    0.0947 C   0  0
    1.9287    0.6605    2.8847 C   0  0
   -1.6796   -0.1184    2.5246 C   0  0
   -3.9700   -0.0752    3.1385 C   0  0
    0.8324    0.4762    0.5302 C   0  0
    0.7423    0.1769    2.0265 C   0  0  2  0  0  0
    0.8885    1.9001    0.2854 N   0  0
   -0.5256    0.6325    2.5573 N   0  0
    1.6656    0.9607    4.0825 O   0  5
   -1.3987    2.2753    0.1081 O   0  0
    3.0354    0.7225    2.2743 O   0  0
   -1.7899   -1.2459    2.0543 O   0  0
   -2.6997    0.5850    3.1008 O   0  0
    0.0798   11.0157   -1.2926 Br  0  0
   -7.5592    3.1574    5.4992 H   0  0
   -6.2351    1.5662    6.8666 H   0  0
   -7.2267    3.2564    3.0421 H   0  0
    1.4253    6.1998   -1.1657 H   0  0
   -2.6534    7.0228   -0.0248 H   0  0
   -4.5826    0.0774    5.7860 H   0  0
   -5.5769    1.7721    1.9521 H   0  0
    1.8031    8.5936   -1.5460 H   0  0
   -2.2773    9.4173   -0.4042 H   0  0
   -1.9090    4.7029   -0.3251 H   0  0
    1.1557    4.3880   -0.1227 H   0  0
   -3.8673   -1.0160    3.6900 H   0  0
   -4.2798   -0.3168    2.1160 H   0  0
    1.7192    0.0037    0.0940 H   0  0
   -0.0418    0.0676    0.0110 H   0  0
    0.7287   -0.9147    2.1421 H   0  0
    1.7986    2.3501    0.2517 H   0  0
   -0.5659    1.5549    2.9760 H   0  0
  1  2  2  0
  1  3  1  0
  2  6  1  0
  3  7  2  0
  4  8  2  0
  4 10  1  0
  5  9  1  0
  5 10  2  0
  6 11  2  0
  7 11  1  0
  8 12  1  0
  9 12  2  0
 10 13  1  0
 11 18  1  0
 12 28  1  0
 13 14  2  0
 14 15  1  0
 15 21  1  0
 15 24  2  0
 16 20  1  0
 16 23  1  0
 16 25  2  0
 17 22  1  0
 17 26  2  0
 17 27  1  0
 18 27  1  0
 19 20  1  0
 19 21  1  0
 20 22  1  0
  1 29  1  0
  2 30  1  0
  3 31  1  0
  4 32  1  0
  5 33  1  0
  6 34  1  0
  7 35  1  0
  8 36  1  0
  9 37  1  0
 13 38  1  0
 14 39  1  0
 18 40  1  0
 18 41  1  0
 19 42  1  0
 19 43  1  0
 20 44  1  0
 21 45  1  0
 22 46  1  0
M  CHG  1  23  -1
M  END
> <Name>
BR010021

$$$$
BR010022
  SciTegic05062102053D

 48 49  0  0  1  0            999 V2000
   -7.0341    1.9323    4.8957 C   0  0
   -6.2358    1.1000    5.6804 C   0  0
   -6.8309    1.9964    3.5172 C   0  0
    0.1439    6.8567   -1.0336 C   0  0
   -2.1786    7.1441   -0.4330 C   0  0
   -5.2342    0.3320    5.0865 C   0  0
   -5.8294    1.2284    2.9234 C   0  0
    0.2567    8.2293   -1.2543 C   0  0
   -2.0658    8.5167   -0.6537 C   0  0
   -1.0737    6.3140   -0.6230 C   0  0
   -5.0310    0.3962    3.7080 C   0  0
   -0.8482    9.0594   -1.0644 C   0  0
   -1.1929    4.8639   -0.3898 C   0  0
   -0.1573    4.0414   -0.1664 C   0  0
   -0.3983    2.5889    0.0671 C   0  0
    1.8750    0.7531    2.9000 C   0  0
   -1.6574   -0.3003    2.4895 C   0  0
   -3.9536   -0.4296    3.0686 C   0  0
    0.8324    0.4762    0.5302 C   0  0
    0.7423    0.1769    2.0265 C   0  0  2  0  0  0
    0.7836    1.8992    0.2789 N   0  0
   -0.5646    0.5365    2.5358 N   0  0
   -0.7334   10.4567   -1.2891 N   0  3
    1.5714    1.0371    4.0921 O   0  5
    0.3709   10.9245   -1.6582 O   0  5
   -1.5226    2.0981    0.0652 O   0  0
    2.9830    0.8969    2.3061 O   0  0
   -1.6742   -1.4348    2.0235 O   0  0
   -1.7394   11.1855   -1.1128 O   0  0
   -2.7370    0.3254    3.0466 O   0  0
   -7.8148    2.5292    5.3581 H   0  0
   -6.3946    1.0491    6.7536 H   0  0
   -7.4530    2.6434    2.9059 H   0  0
    1.0140    6.2225   -1.1858 H   0  0
   -3.1343    6.7358   -0.1132 H   0  0
   -4.6169   -0.3135    5.7058 H   0  0
   -5.6782    1.2849    1.8486 H   0  0
    1.2115    8.6393   -1.5742 H   0  0
   -2.9347    9.1524   -0.5020 H   0  0
   -2.2097    4.4779   -0.3882 H   0  0
    0.8666    4.3986   -0.1380 H   0  0
   -3.7881   -1.3575    3.6265 H   0  0
   -4.2283   -0.6982    2.0428 H   0  0
    1.7592    0.0710    0.1099 H   0  0
    0.0000    0.0000    0.0000 H   0  0
    0.8102   -0.9121    2.1475 H   0  0
    1.6571    2.4173    0.2566 H   0  0
   -0.6817    1.4548    2.9490 H   0  0
  1  2  2  0
  1  3  1  0
  2  6  1  0
  3  7  2  0
  4  8  2  0
  4 10  1  0
  5  9  1  0
  5 10  2  0
  6 11  2  0
  7 11  1  0
  8 12  1  0
  9 12  2  0
 10 13  1  0
 11 18  1  0
 12 23  1  0
 13 14  2  0
 14 15  1  0
 15 21  1  0
 15 26  2  0
 16 20  1  0
 16 24  1  0
 16 27  2  0
 17 22  1  0
 17 28  2  0
 17 30  1  0
 18 30  1  0
 19 20  1  0
 19 21  1  0
 20 22  1  0
 23 25  1  0
 23 29  2  0
  1 31  1  0
  2 32  1  0
  3 33  1  0
  4 34  1  0
  5 35  1  0
  6 36  1  0
  7 37  1  0
  8 38  1  0
  9 39  1  0
 13 40  1  0
 14 41  1  0
 18 42  1  0
 18 43  1  0
 19 44  1  0
 19 45  1  0
 20 46  1  0
 21 47  1  0
 22 48  1  0
M  CHG  3  23   1  24  -1  25  -1
M  END
> <Name>
BR010022

$$$$
BR010023
  SciTegic05062102053D

 48 49  0  0  1  0            999 V2000
   -7.0341    1.9323    4.8957 C   0  0
   -0.2081    8.1104   -1.9870 C   0  0
   -6.2358    1.1000    5.6804 C   0  0
   -6.8309    1.9964    3.5172 C   0  0
   -0.8006    9.0427   -1.1354 C   0  0
   -0.3447    6.7461   -1.7309 C   0  0
   -5.2342    0.3320    5.0865 C   0  0
   -5.8294    1.2284    2.9234 C   0  0
   -1.5297    8.6107   -0.0275 C   0  0
   -1.0737    6.3140   -0.6230 C   0  0
   -5.0310    0.3962    3.7080 C   0  0
   -1.6663    7.2464    0.2287 C   0  0
   -1.1929    4.8639   -0.3898 C   0  0
   -0.1573    4.0414   -0.1664 C   0  0
   -0.3983    2.5889    0.0671 C   0  0
    1.8750    0.7531    2.9000 C   0  0
   -1.6574   -0.3003    2.4895 C   0  0
   -3.9536   -0.4296    3.0686 C   0  0
    0.8324    0.4762    0.5302 C   0  0
    0.7423    0.1769    2.0265 C   0  0  2  0  0  0
    0.7836    1.8992    0.2789 N   0  0
   -0.5646    0.5365    2.5358 N   0  0
   -2.4146    6.8395    1.3697 N   0  3
    1.5714    1.0371    4.0921 O   0  5
   -3.6456    6.6415    1.2456 O   0  5
   -1.5226    2.0981    0.0652 O   0  0
    2.9830    0.8969    2.3061 O   0  0
   -1.6742   -1.4348    2.0235 O   0  0
   -1.8186    6.6920    2.4618 O   0  0
   -2.7370    0.3254    3.0466 O   0  0
   -7.8148    2.5292    5.3581 H   0  0
    0.3601    8.4471   -2.8492 H   0  0
   -6.3946    1.0491    6.7536 H   0  0
   -7.4530    2.6434    2.9059 H   0  0
   -0.6944   10.1049   -1.3355 H   0  0
    0.1235    6.0331   -2.4055 H   0  0
   -4.6169   -0.3135    5.7058 H   0  0
   -5.6782    1.2849    1.8486 H   0  0
   -1.9859    9.3494    0.6271 H   0  0
   -2.2097    4.4779   -0.3882 H   0  0
    0.8666    4.3986   -0.1380 H   0  0
   -3.7881   -1.3575    3.6265 H   0  0
   -4.2283   -0.6982    2.0428 H   0  0
    1.7592    0.0710    0.1099 H   0  0
    0.0000    0.0000    0.0000 H   0  0
    0.8102   -0.9121    2.1475 H   0  0
    1.6571    2.4173    0.2566 H   0  0
   -0.6817    1.4548    2.9490 H   0  0
  1  3  2  0
  1  4  1  0
  2  5  2  0
  2  6  1  0
  3  7  1  0
  4  8  2  0
  5  9  1  0
  6 10  2  0
  7 11  2  0
  8 11  1  0
  9 12  2  0
 10 12  1  0
 10 13  1  0
 11 18  1  0
 12 23  1  0
 13 14  2  0
 14 15  1  0
 15 21  1  0
 15 26  2  0
 16 20  1  0
 16 24  1  0
 16 27  2  0
 17 22  1  0
 17 28  2  0
 17 30  1  0
 18 30  1  0
 19 20  1  0
 19 21  1  0
 20 22  1  0
 23 25  1  0
 23 29  2  0
  1 31  1  0
  2 32  1  0
  3 33  1  0
  4 34  1  0
  5 35  1  0
  6 36  1  0
  7 37  1  0
  8 38  1  0
  9 39  1  0
 13 40  1  0
 14 41  1  0
 18 42  1  0
 18 43  1  0
 19 44  1  0
 19 45  1  0
 20 46  1  0
 21 47  1  0
 22 48  1  0
M  CHG  3  23   1  24  -1  25  -1
M  END
> <Name>
BR010023

$$$$
BR010024
  SciTegic05062102053D

 18 18  0  0  0  0            999 V2000
    1.8851   -1.0363   -0.1124 C   0  0
    0.8066   -0.4630    0.5610 C   0  0
    2.9210   -1.6309    0.6081 C   0  0
    0.7638   -0.4841    1.9551 C   0  0
    2.8783   -1.6520    2.0022 C   0  0
    1.7997   -1.0786    2.6757 C   0  0
    1.7557   -1.1009    4.1294 C   0  0
    1.0066   -0.2809    4.9003 C   0  0
    1.0236   -0.3588    6.4344 C   0  0
    1.7953   -1.2512    6.8954 O   0  5
    0.2881    0.4551    7.0595 O   0  0
    1.9178   -1.0210   -1.1979 H   0  0
   -0.0007   -0.0010    0.0001 H   0  0
    3.7603   -2.0783    0.0839 H   0  0
   -0.0836   -0.0330    2.4659 H   0  0
    3.6934   -2.1192    2.5498 H   0  0
    2.4056   -1.8358    4.6165 H   0  0
    0.3780    0.4733    4.4289 H   0  0
  1  2  2  0
  1  3  1  0
  2  4  1  0
  3  5  2  0
  4  6  2  0
  5  6  1  0
  6  7  1  0
  7  8  2  0
  8  9  1  0
  9 10  1  0
  9 11  2  0
  1 12  1  0
  2 13  1  0
  3 14  1  0
  4 15  1  0
  5 16  1  0
  7 17  1  0
  8 18  1  0
M  CHG  1  10  -1
M  END
> <Name>
BR010024

$$$$
BR010025
  SciTegic05062102053D

 24 24  0  0  0  0            999 V2000
    1.8851   -1.0363   -0.1124 C   0  0
    2.8783   -1.6520    2.0022 C   0  0
    0.8066   -0.4630    0.5610 C   0  0
    1.7997   -1.0786    2.6757 C   0  0
    2.9210   -1.6309    0.6081 C   0  0
    0.7638   -0.4841    1.9551 C   0  0
    4.0457   -2.2289   -0.0940 C   0  0
    4.0407   -2.6161   -1.3893 C   0  0
   -0.3601    0.1153    2.6569 C   0  0
    5.2686   -3.2529   -2.0576 C   0  0
   -1.2753    0.5493    4.8170 C   0  0
    6.2669   -3.3763   -1.2879 O   0  5
   -1.3204    0.6646    2.1010 O   0  0
    5.1570   -3.5806   -3.2719 O   0  0
   -0.2272   -0.0033    4.0135 O   0  0
    1.9046   -1.0121   -1.1994 H   0  0
    3.6782   -2.1116    2.5778 H   0  0
    0.0050   -0.0020   -0.0106 H   0  0
    1.7765   -1.1003    3.7622 H   0  0
    4.9518   -2.3871    0.5009 H   0  0
    3.1367   -2.4907   -1.9837 H   0  0
   -1.0485    0.3888    5.8739 H   0  0
   -2.2236    0.0706    4.5601 H   0  0
   -1.3459    1.6218    4.6207 H   0  0
  1  3  1  0
  1  5  2  0
  2  4  2  0
  2  5  1  0
  3  6  2  0
  4  6  1  0
  5  7  1  0
  6  9  1  0
  7  8  2  0
  8 10  1  0
  9 13  2  0
  9 15  1  0
 10 12  1  0
 10 14  2  0
 11 15  1  0
  1 16  1  0
  2 17  1  0
  3 18  1  0
  4 19  1  0
  7 20  1  0
  8 21  1  0
 11 22  1  0
 11 23  1  0
 11 24  1  0
M  CHG  1  12  -1
M  END
> <Name>
BR010025

$$$$
BR010026
  SciTegic05062102053D

 19 19  0  0  0  0            999 V2000
    4.0248   -2.2198   -0.0824 C   0  0
    1.8851   -1.0363   -0.1124 C   0  0
    2.8783   -1.6520    2.0022 C   0  0
    0.8066   -0.4630    0.5610 C   0  0
    1.7997   -1.0786    2.6757 C   0  0
    2.9210   -1.6309    0.6081 C   0  0
    0.7638   -0.4841    1.9551 C   0  0
   -0.3611    0.1129    2.6576 C   0  0
   -1.2096    1.0280    2.1375 C   0  0
   -2.3704    1.6220    2.9496 C   0  0
    4.9212   -2.6981   -0.6432 N   0  0
   -2.4511    1.1767    4.1326 O   0  5
   -3.1023    2.4716    2.3693 O   0  0
    1.9047   -1.0125   -1.1994 H   0  0
    3.6780   -2.1128    2.5772 H   0  0
    0.0066   -0.0037   -0.0146 H   0  0
    1.7808   -1.1043    3.7627 H   0  0
   -0.4994   -0.2048    3.6967 H   0  0
   -1.0654    1.3736    1.1147 H   0  0
  1  6  1  0
  1 11  3  0
  2  4  1  0
  2  6  2  0
  3  5  2  0
  3  6  1  0
  4  7  2  0
  5  7  1  0
  7  8  1  0
  8  9  2  0
  9 10  1  0
 10 12  1  0
 10 13  2  0
  2 14  1  0
  3 15  1  0
  4 16  1  0
  5 17  1  0
  8 18  1  0
  9 19  1  0
M  CHG  1  12  -1
M  END
> <Name>
BR010026

$$$$
BR010027
  SciTegic05062102053D

 19 19  0  0  0  0            999 V2000
    3.9600   -2.2716    2.7085 C   0  0
    1.8851   -1.0363   -0.1124 C   0  0
    0.8066   -0.4630    0.5610 C   0  0
    2.9210   -1.6309    0.6081 C   0  0
    0.7638   -0.4841    1.9551 C   0  0
    2.8783   -1.6520    2.0022 C   0  0
    1.7997   -1.0786    2.6757 C   0  0
    1.7118   -1.0770    4.1321 C   0  0
    1.6696    0.0277    4.9058 C   0  0
    1.5889   -0.0533    6.4377 C   0  0
    4.8362   -2.7736    3.2805 N   0  0
    1.5667   -1.2363    6.8896 O   0  5
    1.5566    1.0390    7.0702 O   0  0
    1.9188   -1.0188   -1.1979 H   0  0
    0.0004    0.0006   -0.0001 H   0  0
    3.7549   -2.0716    0.0663 H   0  0
   -0.0852   -0.0324    2.4632 H   0  0
    1.7018   -2.0616    4.6074 H   0  0
    1.7082    1.0127    4.4425 H   0  0
  1  6  1  0
  1 11  3  0
  2  3  2  0
  2  4  1  0
  3  5  1  0
  4  6  2  0
  5  7  2  0
  6  7  1  0
  7  8  1  0
  8  9  2  0
  9 10  1  0
 10 12  1  0
 10 13  2  0
  2 14  1  0
  3 15  1  0
  4 16  1  0
  5 17  1  0
  8 18  1  0
  9 19  1  0
M  CHG  1  12  -1
M  END
> <Name>
BR010027

$$$$
BR010028
  SciTegic05062102053D

 18 18  0  0  0  0            999 V2000
    1.8851   -1.0363   -0.1124 C   0  0
    2.8783   -1.6520    2.0022 C   0  0
    0.8066   -0.4630    0.5610 C   0  0
    1.7997   -1.0786    2.6757 C   0  0
    2.9210   -1.6309    0.6081 C   0  0
    0.7638   -0.4841    1.9551 C   0  0
    4.0464   -2.2282   -0.0937 C   0  0
    4.0422   -2.6148   -1.3892 C   0  0
    5.2706   -3.2507   -2.0571 C   0  0
    6.2686   -3.3741   -1.2869 O   0  5
    5.1598   -3.5779   -3.2716 O   0  0
   -0.5668    0.2233    2.7855 Cl  0  0
    1.9047   -1.0129   -1.1995 H   0  0
    3.6786   -2.1118    2.5771 H   0  0
    0.0069   -0.0028   -0.0138 H   0  0
    1.7797   -1.1026    3.7623 H   0  0
    4.9521   -2.3862    0.5016 H   0  0
    3.1384   -2.4894   -1.9840 H   0  0
  1  3  1  0
  1  5  2  0
  2  4  2  0
  2  5  1  0
  3  6  2  0
  4  6  1  0
  5  7  1  0
  6 12  1  0
  7  8  2  0
  8  9  1  0
  9 10  1  0
  9 11  2  0
  1 13  1  0
  2 14  1  0
  3 15  1  0
  4 16  1  0
  7 17  1  0
  8 18  1  0
M  CHG  1  10  -1
M  END
> <Name>
BR010028

$$$$
BR010029
  SciTegic05062102053D

 18 18  0  0  0  0            999 V2000
    1.8851   -1.0363   -0.1124 C   0  0
    2.8783   -1.6520    2.0022 C   0  0
    0.8066   -0.4630    0.5610 C   0  0
    1.7997   -1.0786    2.6757 C   0  0
    2.9210   -1.6309    0.6081 C   0  0
    0.7638   -0.4841    1.9551 C   0  0
    4.0464   -2.2272   -0.0943 C   0  0
    4.0422   -2.6128   -1.3901 C   0  0
    5.2708   -3.2478   -2.0588 C   0  0
    6.2689   -3.3714   -1.2888 O   0  5
    5.1599   -3.5741   -3.2734 O   0  0
   -0.6976    0.2930    2.8678 Br  0  0
    1.9054   -1.0119   -1.1993 H   0  0
    3.6789   -2.1116    2.5769 H   0  0
    0.0075   -0.0043   -0.0158 H   0  0
    1.7819   -1.1040    3.7623 H   0  0
    4.9524   -2.3854    0.5007 H   0  0
    3.1383   -2.4874   -1.9847 H   0  0
  1  3  1  0
  1  5  2  0
  2  4  2  0
  2  5  1  0
  3  6  2  0
  4  6  1  0
  5  7  1  0
  6 12  1  0
  7  8  2  0
  8  9  1  0
  9 10  1  0
  9 11  2  0
  1 13  1  0
  2 14  1  0
  3 15  1  0
  4 16  1  0
  7 17  1  0
  8 18  1  0
M  CHG  1  10  -1
M  END
> <Name>
BR010029

$$$$
BR010030
  SciTegic05062102053D

 20 20  0  0  0  0            999 V2000
    1.8851   -1.0363   -0.1124 C   0  0
    0.8066   -0.4630    0.5610 C   0  0
    2.9210   -1.6309    0.6081 C   0  0
    0.7638   -0.4841    1.9551 C   0  0
    2.8783   -1.6520    2.0022 C   0  0
    1.7997   -1.0786    2.6757 C   0  0
    3.9820   -2.2838    2.7163 C   0  0
    4.3356   -3.5818    2.6076 C   0  0
    5.5064   -4.1770    3.4043 C   0  0
    1.7262   -1.0804    4.0976 N   0  3
    6.0927   -3.3437    4.1568 O   0  5
    1.1665   -2.0428    4.6724 O   0  5
    5.7542   -5.4031    3.2325 O   0  0
    2.2240   -0.1198    4.7294 O   0  0
    1.9184   -1.0191   -1.1978 H   0  0
    0.0000   -0.0006   -0.0004 H   0  0
    3.7539   -2.0734    0.0669 H   0  0
   -0.0836   -0.0334    2.4659 H   0  0
    4.5359   -1.6365    3.4019 H   0  0
    3.7716   -4.2409    1.9490 H   0  0
  1  2  2  0
  1  3  1  0
  2  4  1  0
  3  5  2  0
  4  6  2  0
  5  6  1  0
  5  7  1  0
  6 10  1  0
  7  8  2  0
  8  9  1  0
  9 11  1  0
  9 13  2  0
 10 12  1  0
 10 14  2  0
  1 15  1  0
  2 16  1  0
  3 17  1  0
  4 18  1  0
  7 19  1  0
  8 20  1  0
M  CHG  3  10   1  11  -1  12  -1
M  END
> <Name>
BR010030

$$$$
BR010031
  SciTegic05062102053D

 42 44  0  0  1  0            999 V2000
  -11.9965   -0.0178    0.3785 C   0  0
   -9.9012   -1.4692   -2.5850 C   0  0
  -10.3172   -2.8052   -2.7574 C   0  0
  -11.3454    0.9603    1.1301 C   0  0
  -11.9233   -1.3566    0.7631 C   0  0
   -8.8104   -1.1557   -1.7691 C   0  0
   -9.6505   -3.8539   -2.1175 C   0  0
  -10.6209    0.5997    2.2661 C   0  0
  -11.1988   -1.7173    1.8992 C   0  0
   -8.1676   -2.2065   -1.1478 C   0  0
   -8.5766   -3.5211   -1.3176 C   0  0
  -10.5476   -0.7392    2.6507 C   0  0
   -7.0157   -2.2032   -0.2471 C   0  0
   -7.6919   -4.3772   -0.5277 C   0  0
   -5.1651   -4.5623    3.4237 C   0  0
   -8.1465   -2.7006    3.1507 C   0  0
   -9.7682   -1.1279    3.8726 C   0  0
   -5.7252   -3.9702    0.9509 C   0  0
   -6.2054   -4.0673    2.3988 C   0  0  2  0  0  0
   -6.7909   -3.5254    0.0751 N   0  0
   -6.8169   -2.8217    2.8129 N   0  0
   -5.2926   -4.1288    4.6027 O   0  5
   -6.4250   -1.1987    0.1036 O   0  0
   -7.7944   -5.5883   -0.4660 O   0  0
   -4.2815   -5.3359    2.9525 O   0  0
   -8.9738   -3.6062    3.1477 O   0  0
   -8.4151   -1.4057    3.4951 O   0  0
  -12.5617    0.2634   -0.5053 H   0  0
  -10.4381   -0.6734   -3.0949 H   0  0
  -11.1691   -3.0203   -3.3973 H   0  0
  -11.4032    2.0030    0.8314 H   0  0
  -12.4311   -2.1183    0.1788 H   0  0
   -8.4913   -0.1285   -1.6365 H   0  0
   -9.9706   -4.8805   -2.2501 H   0  0
  -10.1165    1.3685    2.8455 H   0  0
  -11.1472   -2.7629    2.1912 H   0  0
   -9.7738   -0.3215    4.6138 H   0  0
  -10.2006   -2.0185    4.3411 H   0  0
   -4.8822   -3.2756    0.8688 H   0  0
   -5.3746   -4.9487    0.6039 H   0  0
   -7.0138   -4.8096    2.4268 H   0  0
   -6.2342   -1.9933    2.8565 H   0  0
  1  4  2  0
  1  5  1  0
  2  3  1  0
  2  6  2  0
  3  7  2  0
  4  8  1  0
  5  9  2  0
  6 10  1  0
  7 11  1  0
  8 12  2  0
  9 12  1  0
 10 11  2  0
 10 13  1  0
 11 14  1  0
 12 17  1  0
 13 20  1  0
 13 23  2  0
 14 20  1  0
 14 24  2  0
 15 19  1  0
 15 22  1  0
 15 25  2  0
 16 21  1  0
 16 26  2  0
 16 27  1  0
 17 27  1  0
 18 19  1  0
 18 20  1  0
 19 21  1  0
  1 28  1  0
  2 29  1  0
  3 30  1  0
  4 31  1  0
  5 32  1  0
  6 33  1  0
  7 34  1  0
  8 35  1  0
  9 36  1  0
 17 37  1  0
 17 38  1  0
 18 39  1  0
 18 40  1  0
 19 41  1  0
 21 42  1  0
M  CHG  1  22  -1
M  END
> <Name>
BR010031

$$$$
BR010032
  SciTegic05062102053D

 44 46  0  0  1  0            999 V2000
  -11.9966   -0.0181    0.3767 C   0  0
  -11.3456    0.9601    1.1282 C   0  0
  -11.9234   -1.3569    0.7615 C   0  0
   -9.9008   -1.4700   -2.5863 C   0  0
   -8.8102   -1.1563   -1.7702 C   0  0
  -10.6213    0.5997    2.2644 C   0  0
  -11.1991   -1.7174    1.8978 C   0  0
  -10.3168   -2.8060   -2.7584 C   0  0
   -8.1675   -2.2070   -1.1486 C   0  0
   -8.5764   -3.5216   -1.3182 C   0  0
  -10.5481   -0.7391    2.6493 C   0  0
   -9.6501   -3.8546   -2.1183 C   0  0
   -7.0157   -2.2035   -0.2477 C   0  0
   -7.6918   -4.3776   -0.5281 C   0  0
   -5.1656   -4.5619    3.4240 C   0  0
   -8.1470   -2.7004    3.1500 C   0  0
   -9.7689   -1.1276    3.8714 C   0  0
   -5.7253   -3.9703    0.9509 C   0  0
   -6.2058   -4.0672    2.3988 C   0  0  2  0  0  0
   -6.7910   -3.5257    0.0748 N   0  0
   -6.8173   -2.8215    2.8125 N   0  0
  -10.0827   -5.1924   -2.3029 N   0  3
   -5.2933   -4.1282    4.6028 O   0  5
   -9.5959   -5.8664   -3.2439 O   0  5
   -6.4248   -1.1991    0.1031 O   0  0
   -7.7818   -5.5894   -0.4566 O   0  0
   -4.2819   -5.3356    2.9530 O   0  0
   -8.9743   -3.6060    3.1471 O   0  0
  -10.9415   -5.6691   -1.5206 O   0  0
   -8.4157   -1.4054    3.4942 O   0  0
  -12.5617    0.2628   -0.5073 H   0  0
  -11.4034    2.0027    0.8293 H   0  0
  -12.4311   -2.1187    0.1773 H   0  0
  -10.4375   -0.6741   -3.0962 H   0  0
   -8.4912   -0.1292   -1.6376 H   0  0
  -10.1171    1.3687    2.8438 H   0  0
  -11.1475   -2.7629    2.1900 H   0  0
  -11.1708   -3.0073   -3.4021 H   0  0
   -9.7747   -0.3210    4.6124 H   0  0
  -10.2013   -2.0181    4.3400 H   0  0
   -4.8823   -3.2757    0.8689 H   0  0
   -5.3746   -4.9489    0.6041 H   0  0
   -7.0142   -4.8095    2.4268 H   0  0
   -6.2347   -1.9931    2.8560 H   0  0
  1  2  2  0
  1  3  1  0
  2  6  1  0
  3  7  2  0
  4  5  2  0
  4  8  1  0
  5  9  1  0
  6 11  2  0
  7 11  1  0
  8 12  2  0
  9 10  2  0
  9 13  1  0
 10 12  1  0
 10 14  1  0
 11 17  1  0
 12 22  1  0
 13 20  1  0
 13 25  2  0
 14 20  1  0
 14 26  2  0
 15 19  1  0
 15 23  1  0
 15 27  2  0
 16 21  1  0
 16 28  2  0
 16 30  1  0
 17 30  1  0
 18 19  1  0
 18 20  1  0
 19 21  1  0
 22 24  1  0
 22 29  2  0
  1 31  1  0
  2 32  1  0
  3 33  1  0
  4 34  1  0
  5 35  1  0
  6 36  1  0
  7 37  1  0
  8 38  1  0
 17 39  1  0
 17 40  1  0
 18 41  1  0
 18 42  1  0
 19 43  1  0
 21 44  1  0
M  CHG  3  22   1  23  -1  24  -1
M  END
> <Name>
BR010032

$$$$
BR010033
  SciTegic05062102053D

 78 81  0  0  1  0            999 V2000
  -21.0504    7.6474   13.1102 C   0  0
  -22.3072    7.7116   12.5085 C   0  0
  -21.4517    4.0463   21.0746 C   0  0
  -23.7113    4.3029   21.8903 C   0  0
  -33.0537    9.7443   11.8552 C   0  0
  -20.9235    7.1561   14.4095 C   0  0
  -21.0445    3.6167   22.3376 C   0  0
  -23.3042    3.8732   23.1534 C   0  0
  -31.6792    9.5770   12.0235 C   0  0
  -23.3101    6.7932   14.5055 C   0  0
  -33.3180    9.9772   14.2453 C   0  0
  -22.7851    4.3895   20.8510 C   0  0
  -23.4370    7.2845   13.2061 C   0  0
  -33.8731    9.9445   12.9661 C   0  0
  -22.0533    6.7290   15.1071 C   0  0
  -21.9708    3.5301   23.3770 C   0  0
  -31.1241    9.6098   13.3027 C   0  0
  -31.9435    9.8099   14.4137 C   0  0
  -20.7307    0.0284   25.8865 C   0  0
  -23.2152    4.8435   19.5167 C   0  0
  -35.3059   10.1209   12.7903 C   0  0
  -22.3910    5.3248   18.5743 C   0  0
  -20.6146    1.3609   25.8944 C   0  0
  -24.7741    7.3534   12.5644 C   0  0
  -22.9382    5.7671   17.2551 C   0  0
  -27.0676    6.9052   12.9030 C   0  0  1  0  0  0
  -27.8372    5.7430   13.5308 C   0  0  1  0  0  0
  -27.7182    8.2466   13.2414 C   0  0  2  0  0  0
  -29.3333    5.8558   13.2282 C   0  0  1  0  0  0
  -29.2247    8.2147   12.9839 C   0  0  1  0  0  0
  -30.9975   11.1192   16.1591 C   0  0
  -20.4820    2.1935   24.6626 C   0  0
  -30.1488    4.7802   13.9392 C   0  0
  -21.9261    6.2372   16.4066 N   0  0
  -35.8564   10.1043   11.6859 O   0  0
  -24.9525    7.7726   11.4313 O   0  0
  -24.1364    5.6995   17.0075 O   0  0
  -29.8263    7.1209   13.6725 O   0  0
  -27.3130    4.5284   13.0004 O   0  0
  -27.1171    9.2543   12.4294 O   0  0
  -31.5150    4.9629   13.6155 O   0  0
  -29.7746    9.4445   13.4545 O   0  0
  -31.4132    9.8464   15.6679 O   0  0
  -21.5734    3.1108   24.6094 O   0  0
  -25.7319    6.8906   13.4096 O   0  0
  -20.1705    7.9796   12.5671 H   0  0
  -22.3938    8.0973   11.4961 H   0  0
  -20.7181    4.1086   20.2745 H   0  0
  -24.7542    4.5669   21.7315 H   0  0
  -33.4753    9.7170   10.8537 H   0  0
  -19.9391    7.1110   14.8689 H   0  0
  -20.0045    3.3508   22.5058 H   0  0
  -24.0303    3.8078   23.9591 H   0  0
  -31.0463    9.4212   11.1541 H   0  0
  -24.1916    6.4610   15.0501 H   0  0
  -33.9539   10.1355   15.1135 H   0  0
  -20.8249   -0.5384   26.8062 H   0  0
  -20.7330   -0.5173   24.9493 H   0  0
  -24.2852    4.7844   19.3317 H   0  0
  -35.9181   10.2774   13.7052 H   0  0
  -21.3229    5.4169   18.7405 H   0  0
  -20.6066    1.8775   26.8506 H   0  0
  -26.9884    6.7716   11.8168 H   0  0
  -27.6573    5.7406   14.6137 H   0  0
  -27.5090    8.5102   14.2859 H   0  0
  -29.5165    5.7536   12.1504 H   0  0
  -29.4372    8.1497   11.9092 H   0  0
  -30.5942   11.0071   17.1685 H   0  0
  -31.8502   11.8029   16.1698 H   0  0
  -30.2216   11.5179   15.5014 H   0  0
  -20.4907    1.5874   23.7511 H   0  0
  -19.5482    2.7632   24.6991 H   0  0
  -30.0193    4.8675   15.0180 H   0  0
  -29.8293    3.7917   13.6092 H   0  0
  -20.9730    6.2172   16.7889 H   0  0
  -27.4456    4.5663   12.0405 H   0  0
  -27.2843    9.0010   11.5089 H   0  0
  -32.0136    4.2681   14.0786 H   0  0
  1  2  2  0
  1  6  1  0
  2 13  1  0
  3  7  1  0
  3 12  2  0
  4  8  2  0
  4 12  1  0
  5  9  1  0
  5 14  2  0
  6 15  2  0
  7 16  2  0
  8 16  1  0
  9 17  2  0
 10 13  2  0
 10 15  1  0
 11 14  1  0
 11 18  2  0
 12 20  1  0
 13 24  1  0
 14 21  1  0
 15 34  1  0
 16 44  1  0
 17 18  1  0
 17 42  1  0
 18 43  1  0
 19 23  2  0
 20 22  2  0
 21 35  2  0
 22 25  1  0
 23 32  1  0
 24 36  2  0
 24 45  1  0
 25 34  1  0
 25 37  2  0
 26 27  1  0
 26 28  1  0
 26 45  1  0
 27 29  1  0
 27 39  1  0
 28 30  1  0
 28 40  1  0
 29 33  1  0
 29 38  1  0
 30 38  1  0
 30 42  1  0
 31 43  1  0
 32 44  1  0
 33 41  1  0
  1 46  1  0
  2 47  1  0
  3 48  1  0
  4 49  1  0
  5 50  1  0
  6 51  1  0
  7 52  1  0
  8 53  1  0
  9 54  1  0
 10 55  1  0
 11 56  1  0
 19 57  1  0
 19 58  1  0
 20 59  1  0
 21 60  1  0
 22 61  1  0
 23 62  1  0
 26 63  1  0
 27 64  1  0
 28 65  1  0
 29 66  1  0
 30 67  1  0
 31 68  1  0
 31 69  1  0
 31 70  1  0
 32 71  1  0
 32 72  1  0
 33 73  1  0
 33 74  1  0
 34 75  1  0
 39 76  1  0
 40 77  1  0
 41 78  1  0
M  END
> <Name>
BR010033

$$$$
BR010034
  SciTegic05062102053D

 51 54  0  0  1  0            999 V2000
    5.4501    3.9220   -0.3951 C   0  0
    4.3422    4.1216    0.4285 C   0  0
    5.4007    2.9680   -1.4115 C   0  0
   -0.6501   -6.1595   -2.2401 C   0  0
    3.1850    3.3671    0.2358 C   0  0
    4.2435    2.2135   -1.6042 C   0  0
   -0.5869   -4.9957   -3.0063 C   0  0
   -2.7224   -5.3999   -1.2574 C   0  0
   -1.7179   -6.3616   -1.3656 C   0  0
    3.1356    2.4130   -0.7806 C   0  0
   -1.5914   -4.0339   -2.8981 C   0  0
   -2.6592   -4.2360   -2.0236 C   0  0
   -1.7849   -7.5761   -0.5684 C   0  0
    0.9217   -0.4566   -0.3810 C   0  0
    1.9011    1.6074   -0.9866 C   0  0  2  0  0  0
    0.8120   -0.8001   -1.8605 C   0  0  2  0  0  0
    0.6783    0.4940   -2.6600 C   0  0  2  0  0  0
    0.6010    0.1706   -4.1494 C   0  0  1  0  0  0
   -0.4859   -0.8758   -4.4115 C   0  0  2  0  0  0
   -0.3707   -2.0712   -3.4581 C   0  0  1  0  0  0
   -4.7675   -3.4403   -2.7834 C   0  0
   -0.9297   -8.4644   -0.6205 O   0  0
    2.0223    0.4291   -0.1783 O   0  0
    1.8080    1.3249   -2.3906 O   0  0
   -0.3101   -1.6406   -2.0967 O   0  0
    0.2824    1.3688   -4.8572 O   0  0
   -0.3563   -1.3291   -5.7586 O   0  0
   -1.5179   -2.8968   -3.6550 O   0  0
   -3.6476   -3.3055   -1.9106 O   0  0
    6.3506    4.5106   -0.2457 H   0  0
    4.3801    4.8651    1.2193 H   0  0
    6.2627    2.8132   -2.0537 H   0  0
    0.1381   -6.9022   -2.3327 H   0  0
    2.3267    3.5293    0.8825 H   0  0
    4.2141    1.4724   -2.3986 H   0  0
    0.2476   -4.8440   -3.6854 H   0  0
   -3.5576   -5.5555   -0.5783 H   0  0
   -2.6547   -7.6926    0.1142 H   0  0
    0.0000    0.0005   -0.0005 H   0  0
    1.0903   -1.3623    0.2113 H   0  0
    1.0369    2.1990   -0.6617 H   0  0
    1.7360   -1.3208   -2.1501 H   0  0
   -0.2312    1.0417   -2.3748 H   0  0
    1.5752   -0.1650   -4.5253 H   0  0
   -1.4764   -0.4115   -4.3260 H   0  0
    0.5130   -2.6758   -3.6991 H   0  0
   -5.4806   -2.6353   -2.5894 H   0  0
   -5.2435   -4.4104   -2.6198 H   0  0
   -4.4217   -3.3761   -3.8178 H   0  0
   -0.5731    1.6694   -4.5154 H   0  0
    0.5308   -1.7117   -5.8351 H   0  0
  1  2  2  0
  1  3  1  0
  2  5  1  0
  3  6  2  0
  4  7  2  0
  4  9  1  0
  5 10  2  0
  6 10  1  0
  7 11  1  0
  8  9  2  0
  8 12  1  0
  9 13  1  0
 10 15  1  0
 11 12  2  0
 11 28  1  0
 12 29  1  0
 13 22  2  0
 14 16  1  0
 14 23  1  0
 15 23  1  0
 15 24  1  0
 16 17  1  0
 16 25  1  0
 17 18  1  0
 17 24  1  0
 18 19  1  0
 18 26  1  0
 19 20  1  0
 19 27  1  0
 20 25  1  0
 20 28  1  0
 21 29  1  0
  1 30  1  0
  2 31  1  0
  3 32  1  0
  4 33  1  0
  5 34  1  0
  6 35  1  0
  7 36  1  0
  8 37  1  0
 13 38  1  0
 14 39  1  0
 14 40  1  0
 15 41  1  0
 16 42  1  0
 17 43  1  0
 18 44  1  0
 19 45  1  0
 20 46  1  0
 21 47  1  0
 21 48  1  0
 21 49  1  0
 26 50  1  0
 27 51  1  0
M  END
> <Name>
BR010034

$$$$
BR010035
  SciTegic05062102053D

 89 94  0  0  1  0            999 V2000
   19.9368    7.6868   -2.9223 C   0  0
   21.1831    7.2331   -3.3542 C   0  0
   19.8034    8.9775   -2.4104 C   0  0
   21.9062   15.2678   -8.0291 C   0  0
   22.1729   15.0510   -6.6773 C   0  0
   15.4577   10.1119  -10.9264 C   0  0
   15.3216    8.1994   -9.4565 C   0  0
   27.2190   15.4338    2.4820 C   0  0
   22.2960    8.0701   -3.2742 C   0  0
   20.9164    9.8144   -2.3304 C   0  0
   20.9469   14.4949   -8.6834 C   0  0
   14.5758    9.4936  -11.8127 C   0  0
   14.4397    7.5810  -10.3428 C   0  0
   26.4827   15.5654    1.3047 C   0  0
   20.5212   13.2882   -6.6341 C   0  0
   29.1878   14.8935    1.1903 C   0  0
   15.8306    9.4648   -9.7483 C   0  0
   21.4805   14.0612   -5.9798 C   0  0
   28.5716   15.0979    2.4248 C   0  0
   22.1627    9.3608   -2.7622 C   0  0
   20.2545   13.5051   -7.9859 C   0  0
   14.0668    8.2281  -11.5209 C   0  0
   27.0989   15.3610    0.0702 C   0  0
   28.4515   15.0250    0.0129 C   0  0
    9.8899    8.1400  -13.1469 C   0  0
   16.7623   10.1181   -8.8121 C   0  0
   29.3397   14.9628    3.6523 C   0  0
   17.5938   11.1183   -9.1397 C   0  0
   11.1145    7.7354  -13.5016 C   0  0
   21.7655   13.8316   -4.5408 C   0  0
   18.5062   11.7022   -8.1092 C   0  0
   25.0525   10.9226   -1.1792 C   0  0
   23.3500   10.2543   -2.6763 C   0  0  2  0  0  0
   24.5846   12.3624   -1.3431 C   0  0  2  0  0  0
   23.9618   12.5255   -2.7277 C   0  0  2  0  0  0
   23.4563   13.9553   -2.8972 C   0  0  1  0  0  0
   24.5641   14.9559   -2.5560 C   0  0  2  0  0  0
   25.2425   14.6251   -1.2213 C   0  0  1  0  0  0
   29.6616   15.9627   -1.8070 C   0  0
   12.3668    8.4749  -13.1656 C   0  0
   19.2948   12.7323   -8.6405 N   0  0
   28.8533   15.1326    4.7738 O   0  0
   20.9300   13.4226   -3.7495 O   0  0
   18.5140   11.2866   -6.9565 O   0  0
   23.9534   10.0376   -1.3936 O   0  0
   22.8840   11.5986   -2.8640 O   0  0
   25.6736   13.2629   -1.1861 O   0  0
   23.9853   16.2585   -2.4840 O   0  0
   26.3658   15.4931   -1.0773 O   0  0
   29.0654   14.8252   -1.1866 O   0  0
   13.2062    7.6247  -12.3857 O   0  0
   23.0588   14.1372   -4.2563 O   0  0
   19.0700    7.0354   -2.9860 H   0  0
   21.2869    6.2285   -3.7538 H   0  0
   18.8331    9.3314   -2.0751 H   0  0
   22.4450   16.0387   -8.5722 H   0  0
   22.9232   15.6587   -6.1783 H   0  0
   15.8460   11.0985  -11.1678 H   0  0
   15.6030    7.6823   -8.5422 H   0  0
   26.7284   15.5955    3.4384 H   0  0
   23.2632    7.7080   -3.6128 H   0  0
   20.8031   10.8184   -1.9300 H   0  0
   20.7474   14.6722   -9.7374 H   0  0
   14.2889   10.0026  -12.7288 H   0  0
   14.0465    6.5951  -10.1100 H   0  0
   25.4293   15.8270    1.3560 H   0  0
   19.9818   12.5154   -6.0903 H   0  0
   30.2429   14.6338    1.1421 H   0  0
    9.0055    7.5716  -13.4122 H   0  0
    9.7564    9.0552  -12.5804 H   0  0
   16.7563    9.7185   -7.8007 H   0  0
   30.4142   14.6937    3.5564 H   0  0
   17.6376   11.5201  -10.1465 H   0  0
   11.2140    6.8186  -14.0768 H   0  0
   25.8680   10.6791   -1.8712 H   0  0
   25.4395   10.7580   -0.1680 H   0  0
   24.0528    9.9828   -3.4731 H   0  0
   23.8263   12.5553   -0.5707 H   0  0
   24.6979   12.3202   -3.5180 H   0  0
   22.5628   14.1269   -2.2845 H   0  0
   25.3039   14.9810   -3.3661 H   0  0
   24.5646   14.8248   -0.3816 H   0  0
   30.1157   15.6652   -2.7554 H   0  0
   30.4209   16.3845   -1.1437 H   0  0
   28.8883   16.7113   -1.9949 H   0  0
   12.1676    9.3874  -12.5949 H   0  0
   12.8975    8.7419  -14.0848 H   0  0
   19.1479   12.9444   -9.6347 H   0  0
   23.3130   16.2217   -1.7869 H   0  0
  1  2  2  0
  1  3  1  0
  2  9  1  0
  3 10  2  0
  4  5  2  0
  4 11  1  0
  5 18  1  0
  6 12  1  0
  6 17  2  0
  7 13  2  0
  7 17  1  0
  8 14  2  0
  8 19  1  0
  9 20  2  0
 10 20  1  0
 11 21  2  0
 12 22  2  0
 13 22  1  0
 14 23  1  0
 15 18  2  0
 15 21  1  0
 16 19  2  0
 16 24  1  0
 17 26  1  0
 18 30  1  0
 19 27  1  0
 20 33  1  0
 21 41  1  0
 22 51  1  0
 23 24  2  0
 23 49  1  0
 24 50  1  0
 25 29  2  0
 26 28  2  0
 27 42  2  0
 28 31  1  0
 29 40  1  0
 30 43  2  0
 30 52  1  0
 31 41  1  0
 31 44  2  0
 32 34  1  0
 32 45  1  0
 33 45  1  0
 33 46  1  0
 34 35  1  0
 34 47  1  0
 35 36  1  0
 35 46  1  0
 36 37  1  0
 36 52  1  0
 37 38  1  0
 37 48  1  0
 38 47  1  0
 38 49  1  0
 39 50  1  0
 40 51  1  0
  1 53  1  0
  2 54  1  0
  3 55  1  0
  4 56  1  0
  5 57  1  0
  6 58  1  0
  7 59  1  0
  8 60  1  0
  9 61  1  0
 10 62  1  0
 11 63  1  0
 12 64  1  0
 13 65  1  0
 14 66  1  0
 15 67  1  0
 16 68  1  0
 25 69  1  0
 25 70  1  0
 26 71  1  0
 27 72  1  0
 28 73  1  0
 29 74  1  0
 32 75  1  0
 32 76  1  0
 33 77  1  0
 34 78  1  0
 35 79  1  0
 36 80  1  0
 37 81  1  0
 38 82  1  0
 39 83  1  0
 39 84  1  0
 39 85  1  0
 40 86  1  0
 40 87  1  0
 41 88  1  0
 48 89  1  0
M  END
> <Name>
BR010035

$$$$
BR010036
  SciTegic05062102053D

 89 94  0  0  1  0            999 V2000
    9.9930  -28.3020  -23.3597 C   0  0
    8.9945  -29.2596  -23.5370 C   0  0
    9.9066  -27.3909  -22.3070 C   0  0
    7.7638  -26.3779  -10.6287 C   0  0
    7.3178  -27.1527  -11.6994 C   0  0
    6.5050  -17.8386  -12.0626 C   0  0
    6.3512  -17.5034  -14.4503 C   0  0
    1.9564  -22.9439  -15.9021 C   0  0
    7.9093  -29.3060  -22.6618 C   0  0
    8.8215  -27.4373  -21.4318 C   0  0
    7.6993  -24.9863  -10.7002 C   0  0
    6.5636  -16.4580  -11.8726 C   0  0
    6.4098  -16.1228  -14.2603 C   0  0
    2.3640  -24.1967  -16.3603 C   0  0
    6.7430  -25.1443  -12.9132 C   0  0
    2.3584  -23.6458  -13.6255 C   0  0
    6.3988  -18.3613  -13.3515 C   0  0
    6.8074  -26.5359  -12.8417 C   0  0
    1.9537  -22.6685  -14.5346 C   0  0
    7.8228  -28.3949  -21.6091 C   0  0
    7.1890  -24.3695  -11.8424 C   0  0
    6.5160  -15.6001  -12.9714 C   0  0
    2.7687  -25.1741  -15.4512 C   0  0
    2.7659  -24.8987  -14.0838 C   0  0
    4.3055  -11.9405  -11.6229 C   0  0
    6.3369  -19.8199  -13.5523 C   0  0
    1.5308  -21.3615  -14.0571 C   0  0
    6.7477  -20.7295  -12.6562 C   0  0
    5.5690  -12.3436  -11.7967 C   0  0
    6.3330  -27.3618  -13.9806 C   0  0
    6.6473  -22.1880  -12.9692 C   0  0
    4.5252  -27.4987  -20.3369 C   0  0
    6.6651  -28.4437  -20.6750 C   0  0  2  0  0  0
    4.9902  -27.0199  -18.9681 C   0  0  2  0  0  0
    6.0645  -27.9730  -18.4494 C   0  0  2  0  0  0
    6.5668  -27.4893  -17.0921 C   0  0  1  0  0  0
    5.3894  -27.2513  -16.1424 C   0  0  2  0  0  0
    4.2846  -26.4152  -16.7994 C   0  0  1  0  0  0
    3.1287  -25.4817  -11.8069 C   0  0
    6.0372  -13.7420  -11.5663 C   0  0
    7.1243  -22.9776  -11.9136 N   0  0
    1.5056  -21.0567  -12.8615 O   0  0
    6.3622  -28.5827  -13.9806 O   0  0
    6.1922  -22.5805  -14.0370 O   0  0
    5.6465  -27.5910  -21.2151 O   0  0
    7.1388  -28.0171  -19.3892 O   0  0
    3.8985  -26.9699  -18.0587 O   0  0
    7.4213  -28.4918  -16.5417 O   0  0
    3.1662  -26.3988  -15.9133 O   0  0
    3.1612  -25.8439  -13.1860 O   0  0
    6.5732  -14.2529  -12.7859 O   0  0
    5.8762  -26.5700  -14.9866 O   0  0
   10.8386  -28.2669  -24.0405 H   0  0
    9.0622  -29.9698  -24.3560 H   0  0
   10.6844  -26.6459  -22.1680 H   0  0
    8.1609  -26.8580   -9.7391 H   0  0
    7.3740  -28.2360  -11.6327 H   0  0
    6.5431  -18.4945  -11.1962 H   0  0
    6.2686  -17.8958  -15.4611 H   0  0
    1.6432  -22.1899  -16.6196 H   0  0
    7.1359  -30.0555  -22.8078 H   0  0
    8.7624  -26.7233  -20.6145 H   0  0
    8.0503  -24.3923   -9.8599 H   0  0
    6.6463  -16.0567  -10.8662 H   0  0
    6.3723  -15.4595  -15.1201 H   0  0
    2.3636  -24.4052  -17.4267 H   0  0
    6.3458  -24.6630  -13.8046 H   0  0
    2.3597  -23.4335  -12.5588 H   0  0
    4.0078  -10.9133  -11.8019 H   0  0
    3.5454  -12.6416  -11.2956 H   0  0
    5.9416  -20.1370  -14.5144 H   0  0
    1.2185  -20.6148  -14.8195 H   0  0
    7.1679  -20.4408  -11.6986 H   0  0
    6.3089  -11.6146  -12.1167 H   0  0
    4.0175  -28.4693  -20.2770 H   0  0
    3.8048  -26.7938  -20.7653 H   0  0
    6.3007  -29.4766  -20.6204 H   0  0
    5.4167  -26.0146  -19.0951 H   0  0
    5.6653  -28.9904  -18.3308 H   0  0
    7.1772  -26.5848  -17.2034 H   0  0
    4.9889  -28.2136  -15.7992 H   0  0
    4.6119  -25.3761  -16.9327 H   0  0
    3.4679  -26.3247  -11.1999 H   0  0
    2.1097  -25.2036  -11.5262 H   0  0
    3.7939  -24.6298  -11.6473 H   0  0
    5.2267  -14.4006  -11.2384 H   0  0
    6.8264  -13.7484  -10.8081 H   0  0
    7.4688  -22.4685  -11.0907 H   0  0
    6.8830  -29.2929  -16.4549 H   0  0
  1  2  2  0
  1  3  1  0
  2  9  1  0
  3 10  2  0
  4  5  2  0
  4 11  1  0
  5 18  1  0
  6 12  1  0
  6 17  2  0
  7 13  2  0
  7 17  1  0
  8 14  2  0
  8 19  1  0
  9 20  2  0
 10 20  1  0
 11 21  2  0
 12 22  2  0
 13 22  1  0
 14 23  1  0
 15 18  2  0
 15 21  1  0
 16 19  2  0
 16 24  1  0
 17 26  1  0
 18 30  1  0
 19 27  1  0
 20 33  1  0
 21 41  1  0
 22 51  1  0
 23 24  2  0
 23 49  1  0
 24 50  1  0
 25 29  2  0
 26 28  2  0
 27 42  2  0
 28 31  1  0
 29 40  1  0
 30 43  2  0
 30 52  1  0
 31 41  1  0
 31 44  2  0
 32 34  1  0
 32 45  1  0
 33 45  1  0
 33 46  1  0
 34 35  1  0
 34 47  1  0
 35 36  1  0
 35 46  1  0
 36 37  1  0
 36 48  1  0
 37 38  1  0
 37 52  1  0
 38 47  1  0
 38 49  1  0
 39 50  1  0
 40 51  1  0
  1 53  1  0
  2 54  1  0
  3 55  1  0
  4 56  1  0
  5 57  1  0
  6 58  1  0
  7 59  1  0
  8 60  1  0
  9 61  1  0
 10 62  1  0
 11 63  1  0
 12 64  1  0
 13 65  1  0
 14 66  1  0
 15 67  1  0
 16 68  1  0
 25 69  1  0
 25 70  1  0
 26 71  1  0
 27 72  1  0
 28 73  1  0
 29 74  1  0
 32 75  1  0
 32 76  1  0
 33 77  1  0
 34 78  1  0
 35 79  1  0
 36 80  1  0
 37 81  1  0
 38 82  1  0
 39 83  1  0
 39 84  1  0
 39 85  1  0
 40 86  1  0
 40 87  1  0
 41 88  1  0
 48 89  1  0
M  END
> <Name>
BR010036

$$$$
BR010037
  SciTegic05062102053D

127134  0  0  1  0            999 V2000
   15.2616   39.7430   20.2497 C   0  0
   16.3067   40.6066   20.5774 C   0  0
   15.5385   38.4807   19.7245 C   0  0
   18.0395   34.4587   25.1369 C   0  0
   21.4883   29.1016   18.9143 C   0  0
   18.0917   34.7381   23.7713 C   0  0
   21.6724   30.4774   19.0517 C   0  0
   24.9736   29.8118   27.7547 C   0  0
   26.7667   30.2007   26.1829 C   0  0
   26.5296   24.5884   24.4620 C   0  0
   28.3921   25.9965   25.0830 C   0  0
   24.3569   35.2463   14.1010 C   0  0
   17.6288   40.2082   20.3798 C   0  0
   16.8606   38.0823   19.5269 C   0  0
   19.0921   33.7797   25.7507 C   0  0
   22.2509   28.2164   19.6762 C   0  0
   25.8620   29.1543   28.6055 C   0  0
   27.6552   29.5432   27.0338 C   0  0
   27.1472   23.4999   25.0779 C   0  0
   29.0096   24.9079   25.6990 C   0  0
   24.0282   35.4609   15.4395 C   0  0
   20.2492   33.6594   23.6332 C   0  0
   23.3818   30.0828   20.7128 C   0  0
   24.8874   32.9428   14.6005 C   0  0
   25.4259   30.3350   26.5433 C   0  0
   27.1521   25.8367   24.4645 C   0  0
   19.1965   34.3384   23.0195 C   0  0
   22.6192   30.9680   19.9509 C   0  0
   24.7865   33.9873   13.6815 C   0  0
   17.9057   38.9460   19.8546 C   0  0
   20.1969   33.3801   24.9988 C   0  0
   23.1977   28.7069   20.5754 C   0  0
   27.2028   29.0200   28.2451 C   0  0
   28.3871   23.6596   25.6964 C   0  0
   24.1291   34.4164   16.3585 C   0  0
   24.5587   33.1573   15.9390 C   0  0
   29.0633   25.9449   31.2965 C   0  0
   29.3409   21.8419   29.6345 C   0  0
   24.4874   31.0296   25.6444 C   0  0
   26.4997   26.9866   23.8137 C   0  0
   25.1271   33.7632   12.2855 C   0  0
   23.3111   31.5489   26.0263 C   0  0
   25.5357   26.8899   22.8861 C   0  0
   28.5815   26.2998   30.1003 C   0  0
   29.7595   21.7319   28.3690 C   0  0
   19.2508   34.6365   21.5660 C   0  0
   22.8140   32.4327   20.0962 C   0  0
   22.4305   32.2257   25.0254 C   0  0
   24.9492   28.1260   22.2833 C   0  0
   20.9999   38.4689   17.9853 C   0  0
   19.3162   38.5202   19.6433 C   0  0  2  0  0  0
   21.0784   36.9581   18.1599 C   0  0  2  0  0  0
   20.6807   36.6043   19.5911 C   0  0  2  0  0  0
   20.7211   35.0900   19.7748 C   0  0  1  0  0  0
   22.0712   34.5333   19.3142 C   0  0  2  0  0  0
   22.4671   35.0644   17.9313 C   0  0  1  0  0  0
   25.9094   31.9677   17.4934 C   0  0
   27.5342   27.3443   29.8998 C   0  0
   29.8344   22.8760   27.4131 C   0  0
   21.2498   32.7012   25.6130 N   0  0
   23.9601   27.8213   21.3377 N   0  0
   25.0568   34.6448   11.4248 O   0  0
   18.2566   34.7205   20.8618 O   0  0
   23.6246   32.9278   20.8638 O   0  0
   22.7597   32.3215   23.8490 O   0  0
   25.3300   29.2412   22.6196 O   0  0
   19.6865   38.9187   18.3164 O   0  0
   19.3654   37.1000   19.8434 O   0  0
   22.3931   36.4909   17.8865 O   0  0
   23.8037   34.6396   17.6684 O   0  0
   24.6591   32.1286   16.8263 O   0  0
   28.0697   28.3784   29.0754 O   0  0
   28.9897   22.5975   26.2975 O   0  0
   20.5379   34.7966   21.1599 O   0  0
   21.9769   33.1101   19.2667 O   0  0
   14.2323   40.0529   20.4049 H   0  0
   16.0913   41.5891   20.9874 H   0  0
   14.7251   37.8077   19.4702 H   0  0
   17.1794   34.7701   25.7225 H   0  0
   20.7510   28.7195   18.2144 H   0  0
   17.2651   35.2668   23.3039 H   0  0
   21.0732   31.1574   18.4519 H   0  0
   23.9314   29.9086   28.0495 H   0  0
   27.1343   30.6032   25.2420 H   0  0
   25.5631   24.4481   23.9839 H   0  0
   28.8897   26.9632   25.0933 H   0  0
   24.2744   36.0675   13.3936 H   0  0
   18.4367   40.8878   20.6379 H   0  0
   17.0668   37.0971   19.1170 H   0  0
   19.0405   33.5668   26.8156 H   0  0
   22.0994   27.1459   19.5606 H   0  0
   25.5037   28.7488   29.5478 H   0  0
   28.6985   29.4417   26.7476 H   0  0
   26.6574   22.5299   25.0727 H   0  0
   29.9755   25.0385   26.1792 H   0  0
   23.6946   36.4440   15.7600 H   0  0
   21.1106   33.3467   23.0465 H   0  0
   24.1211   30.4654   21.4136 H   0  0
   25.2197   31.9592   14.2762 H   0  0
   29.8252   25.1799   31.3971 H   0  0
   28.6970   26.4209   32.1995 H   0  0
   29.3021   20.9836   30.2961 H   0  0
   29.0284   22.8030   30.0282 H   0  0
   24.8006   31.0865   24.6046 H   0  0
   26.8683   27.9620   24.1224 H   0  0
   25.4645   32.7433   11.9987 H   0  0
   22.9631   31.4856   27.0519 H   0  0
   25.1659   25.9297   22.5425 H   0  0
   28.9628   25.7974   29.2151 H   0  0
   30.0573   20.7532   28.0020 H   0  0
   21.7399   38.9886   18.6063 H   0  0
   21.2113   38.7463   16.9471 H   0  0
   19.9508   39.0282   20.3793 H   0  0
   20.3670   36.5049   17.4548 H   0  0
   21.3689   37.0617   20.3162 H   0  0
   19.8907   34.6115   19.2413 H   0  0
   22.8447   34.7763   20.0537 H   0  0
   21.8268   34.6318   17.1518 H   0  0
   25.8541   31.1126   18.1715 H   0  0
   26.1438   32.8762   18.0539 H   0  0
   26.6892   31.7898   16.7491 H   0  0
   27.2055   27.7869   30.8454 H   0  0
   26.6674   26.9078   29.3939 H   0  0
   30.8524   23.0428   27.0471 H   0  0
   29.4799   23.7897   27.9003 H   0  0
   21.1472   32.5284   26.6203 H   0  0
   23.7737   26.8225   21.1874 H   0  0
  1  2  2  0
  1  3  1  0
  2 13  1  0
  3 14  2  0
  4  6  2  0
  4 15  1  0
  5  7  2  0
  5 16  1  0
  6 27  1  0
  7 28  1  0
  8 17  1  0
  8 25  2  0
  9 18  2  0
  9 25  1  0
 10 19  1  0
 10 26  2  0
 11 20  2  0
 11 26  1  0
 12 21  2  0
 12 29  1  0
 13 30  2  0
 14 30  1  0
 15 31  2  0
 16 32  2  0
 17 33  2  0
 18 33  1  0
 19 34  2  0
 20 34  1  0
 21 35  1  0
 22 27  2  0
 22 31  1  0
 23 28  2  0
 23 32  1  0
 24 29  2  0
 24 36  1  0
 25 39  1  0
 26 40  1  0
 27 46  1  0
 28 47  1  0
 29 41  1  0
 30 51  1  0
 31 60  1  0
 32 61  1  0
 33 72  1  0
 34 73  1  0
 35 36  2  0
 35 70  1  0
 36 71  1  0
 37 44  2  0
 38 45  2  0
 39 42  2  0
 40 43  2  0
 41 62  2  0
 42 48  1  0
 43 49  1  0
 44 58  1  0
 45 59  1  0
 46 63  2  0
 46 74  1  0
 47 64  2  0
 47 75  1  0
 48 60  1  0
 48 65  2  0
 49 61  1  0
 49 66  2  0
 50 52  1  0
 50 67  1  0
 51 67  1  0
 51 68  1  0
 52 53  1  0
 52 69  1  0
 53 54  1  0
 53 68  1  0
 54 55  1  0
 54 74  1  0
 55 56  1  0
 55 75  1  0
 56 69  1  0
 56 70  1  0
 57 71  1  0
 58 72  1  0
 59 73  1  0
  1 76  1  0
  2 77  1  0
  3 78  1  0
  4 79  1  0
  5 80  1  0
  6 81  1  0
  7 82  1  0
  8 83  1  0
  9 84  1  0
 10 85  1  0
 11 86  1  0
 12 87  1  0
 13 88  1  0
 14 89  1  0
 15 90  1  0
 16 91  1  0
 17 92  1  0
 18 93  1  0
 19 94  1  0
 20 95  1  0
 21 96  1  0
 22 97  1  0
 23 98  1  0
 24 99  1  0
 37100  1  0
 37101  1  0
 38102  1  0
 38103  1  0
 39104  1  0
 40105  1  0
 41106  1  0
 42107  1  0
 43108  1  0
 44109  1  0
 45110  1  0
 50111  1  0
 50112  1  0
 51113  1  0
 52114  1  0
 53115  1  0
 54116  1  0
 55117  1  0
 56118  1  0
 57119  1  0
 57120  1  0
 57121  1  0
 58122  1  0
 58123  1  0
 59124  1  0
 59125  1  0
 60126  1  0
 61127  1  0
M  END
> <Name>
BR010037

$$$$
BR010038
  SciTegic05062102053D

 22 22  0  0  0  0            999 V2000
   -4.6276   -1.3118    4.5504 C   0  0
   -3.0570   -2.5450    5.9104 C   0  0
   -3.8981   -1.6423    3.4083 C   0  0
   -2.3276   -2.8755    4.7683 C   0  0
   -4.2070   -1.7631    5.8014 C   0  0
   -2.7481   -2.4241    3.5173 C   0  0
   -2.5827   -4.9527   -0.1808 C   0  0
   -4.9675   -1.4188    6.9923 C   0  0
   -2.0446   -3.8210    0.2869 C   0  0
   -2.7615   -2.8639    1.1802 C   0  0
   -4.6479   -1.7873    8.1259 O   0  0
   -2.0361   -2.7466    2.4031 O   0  0
   -5.5223   -0.7022    4.4531 H   0  0
   -2.7210   -2.9018    6.8806 H   0  0
   -4.2308   -1.2876    2.4366 H   0  0
   -1.4323   -3.4846    4.8595 H   0  0
   -2.0256   -5.6207   -0.8283 H   0  0
   -3.5986   -5.2273    0.0815 H   0  0
   -5.8769   -0.7939    6.8555 H   0  0
   -1.0273   -3.5697   -0.0017 H   0  0
   -3.7795   -3.1950    1.4086 H   0  0
   -2.8085   -1.8786    0.7059 H   0  0
  1  3  2  0
  1  5  1  0
  2  4  1  0
  2  5  2  0
  3  6  1  0
  4  6  2  0
  5  8  1  0
  6 12  1  0
  7  9  2  0
  8 11  2  0
  9 10  1  0
 10 12  1  0
  1 13  1  0
  2 14  1  0
  3 15  1  0
  4 16  1  0
  7 17  1  0
  7 18  1  0
  8 19  1  0
  9 20  1  0
 10 21  1  0
 10 22  1  0
M  END
> <Name>
BR010038

$$$$
BR010039
  SciTegic05062102053D

 26 26  0  0  0  0            999 V2000
   -4.6283   -1.3108    4.5488 C   0  0
   -3.0585   -2.5437    5.9099 C   0  0
   -3.8984   -1.6415    3.4072 C   0  0
   -2.3285   -2.8745    4.7682 C   0  0
   -4.2084   -1.7618    5.8002 C   0  0
   -2.7485   -2.4234    3.5169 C   0  0
   -2.5826   -4.9530   -0.1806 C   0  0
   -4.9695   -1.4168    6.9906 C   0  0
   -5.8439   -0.3902    7.0879 C   0  0
   -2.0445   -3.8212    0.2870 C   0  0
   -6.6028   -0.0822    8.3875 C   0  0
   -2.7615   -2.8638    1.1799 C   0  0
   -6.3321   -0.8714    9.3404 O   0  5
   -7.3945    0.9013    8.3715 O   0  0
   -2.0362   -2.7462    2.4029 O   0  0
   -5.5226   -0.7005    4.4472 H   0  0
   -2.7185   -2.9027    6.8783 H   0  0
   -4.2305   -1.2873    2.4351 H   0  0
   -1.4336   -3.4839    4.8600 H   0  0
   -2.0254   -5.6211   -0.8278 H   0  0
   -3.5985   -5.2275    0.0817 H   0  0
   -4.7875   -2.0406    7.8724 H   0  0
   -6.0122    0.2551    6.2267 H   0  0
   -1.0271   -3.5700   -0.0016 H   0  0
   -3.7795   -3.1948    1.4083 H   0  0
   -2.8084   -1.8786    0.7054 H   0  0
  1  3  2  0
  1  5  1  0
  2  4  1  0
  2  5  2  0
  3  6  1  0
  4  6  2  0
  5  8  1  0
  6 15  1  0
  7 10  2  0
  8  9  2  0
  9 11  1  0
 10 12  1  0
 11 13  1  0
 11 14  2  0
 12 15  1  0
  1 16  1  0
  2 17  1  0
  3 18  1  0
  4 19  1  0
  7 20  1  0
  7 21  1  0
  8 22  1  0
  9 23  1  0
 10 24  1  0
 12 25  1  0
 12 26  1  0
M  CHG  1  13  -1
M  END
> <Name>
BR010039

$$$$
BR010040
  SciTegic05062102053D

 40 41  0  0  0  0            999 V2000
   -8.9314   -1.5571   12.5006 C   0  0
   -9.5336   -2.7193   12.9824 C   0  0
   -3.8340   -3.0859    5.5711 C   0  0
   -3.8527   -0.7686    4.8876 C   0  0
   -8.1286   -1.6085   11.3610 C   0  0
   -3.1041   -3.4167    4.4295 C   0  0
   -3.1228   -1.0995    3.7460 C   0  0
   -8.5301   -3.9844   11.1853 C   0  0
   -4.2084   -1.7618    5.8002 C   0  0
   -9.3329   -3.9330   12.3248 C   0  0
   -7.9279   -2.8221   10.7034 C   0  0
   -2.7485   -2.4236    3.5169 C   0  0
    1.2595   -3.5875    1.8803 C   0  0
   -4.9695   -1.4168    6.9906 C   0  0
   -5.6916   -2.2856    7.7339 C   0  0
   -0.0291   -3.6642    1.5301 C   0  0
   -9.9679   -5.1591   12.8347 C   0  0
   -6.4464   -1.8186    8.9370 C   0  0
   -1.1467   -3.8577    2.5004 C   0  0
   -7.1136   -2.8738    9.5454 N   0  0
   -9.7672   -6.2669   12.2093 O   0  5
  -10.7035   -5.0837   13.8891 O   0  0
   -6.4308   -0.6429    9.2820 O   0  0
   -2.0362   -2.7464    2.4029 O   0  0
   -9.0879   -0.6123   13.0126 H   0  0
  -10.1570   -2.6686   13.8711 H   0  0
   -4.1038   -3.8711    6.2733 H   0  0
   -4.1372    0.2679    5.0524 H   0  0
   -7.6650   -0.6963   10.9941 H   0  0
   -2.8154   -4.4499    4.2565 H   0  0
   -2.8486   -0.3215    3.0387 H   0  0
   -8.3735   -4.9318   10.6733 H   0  0
    2.0408   -3.4462    1.1418 H   0  0
    1.5513   -3.6660    2.9219 H   0  0
   -4.9577   -0.3598    7.2792 H   0  0
   -5.7501   -3.3365    7.4709 H   0  0
   -0.2880   -3.5908    0.4770 H   0  0
   -0.7900   -3.9297    3.5327 H   0  0
   -1.6986   -4.7698    2.2528 H   0  0
   -7.0052   -3.7877    9.1101 H   0  0
  1  2  2  0
  1  5  1  0
  2 10  1  0
  3  6  1  0
  3  9  2  0
  4  7  2  0
  4  9  1  0
  5 11  2  0
  6 12  2  0
  7 12  1  0
  8 10  2  0
  8 11  1  0
  9 14  1  0
 10 17  1  0
 11 20  1  0
 12 24  1  0
 13 16  2  0
 14 15  2  0
 15 18  1  0
 16 19  1  0
 17 21  1  0
 17 22  2  0
 18 20  1  0
 18 23  2  0
 19 24  1  0
  1 25  1  0
  2 26  1  0
  3 27  1  0
  4 28  1  0
  5 29  1  0
  6 30  1  0
  7 31  1  0
  8 32  1  0
 13 33  1  0
 13 34  1  0
 14 35  1  0
 15 36  1  0
 16 37  1  0
 19 38  1  0
 19 39  1  0
 20 40  1  0
M  CHG  1  21  -1
M  END
> <Name>
BR010040

$$$$
BR010041
  SciTegic05062102053D

 66 67  0  0  1  0            999 V2000
   -6.2719   -5.5742   -3.2911 C   0  0  2  0  0  0
   -0.3262    1.6823    2.3407 C   0  0  2  0  0  0
   -7.1744   -4.8327   -4.2772 C   0  0  2  0  0  0
   -1.0649    2.0550    3.6261 C   0  0  2  0  0  0
   -8.4781   -4.4262   -3.5813 C   0  0  1  0  0  0
   -2.0398    3.2047    3.3484 C   0  0  1  0  0  0
   -8.2070   -3.7160   -2.2505 C   0  0  1  0  0  0
   -2.9178    2.9141    2.1263 C   0  0  1  0  0  0
   -6.0975   -4.8072   -1.9784 C   0  0  2  0  0  0
   -1.2840    1.4551    1.1690 C   0  0  2  0  0  0
   -9.5006   -3.4413   -1.4886 C   0  0
   -3.7853    4.1158    1.7616 C   0  0
   -3.9583   -1.9494   -1.0686 C   0  0
   -3.3587   -1.4473    0.2402 C   0  0
   -4.7827   -3.2120   -0.8614 C   0  0
   -2.5699   -0.1611    0.0400 C   0  0
   -4.9376   -5.8109   -3.9050 N   0  3
    0.4844    0.4543    2.5602 N   0  3
   -9.1659   -2.7957   -0.2028 N   0  3
   -4.5723    3.7844    0.5562 N   0  3
   -7.3758   -4.5159   -1.4038 O   0  0
   -2.1160    2.6048    0.9822 O   0  0
   -7.5179   -5.6913   -5.3658 O   0  0
   -0.1345    2.5087    4.6103 O   0  0
   -9.2145   -3.5537   -4.4355 O   0  0
   -2.8741    3.3989    4.4882 O   0  0
   -5.2983   -3.6341   -2.1146 O   0  0
   -2.0520    0.2602    1.2941 O   0  0
   -6.6900   -6.5696   -3.0898 H   0  0
    0.3918    2.4742    2.0887 H   0  0
   -6.6797   -3.9525   -4.6988 H   0  0
   -1.5991    1.1998    4.0510 H   0  0
   -9.0905   -5.3231   -3.4156 H   0  0
   -1.4679    4.1299    3.1942 H   0  0
   -7.7232   -2.7483   -2.4302 H   0  0
   -3.5939    2.0766    2.3371 H   0  0
   -5.5767   -5.4698   -1.2476 H   0  0
   -0.6841    1.3547    0.2345 H   0  0
  -10.0275   -4.3674   -1.2659 H   0  0
  -10.1434   -2.7596   -2.0428 H   0  0
   -3.1720    4.9840    1.5271 H   0  0
   -4.4871    4.3481    2.5606 H   0  0
   -4.5895   -1.1733   -1.5196 H   0  0
   -3.1637   -2.1505   -1.7979 H   0  0
   -2.7028   -2.2116    0.6754 H   0  0
   -4.1508   -1.2761    0.9799 H   0  0
   -4.1665   -4.0174   -0.4492 H   0  0
   -5.6226   -3.0238   -0.1850 H   0  0
   -3.2111    0.6327   -0.3564 H   0  0
   -1.7325   -0.3193   -0.6471 H   0  0
   -4.5508   -6.7083   -3.5982 H   0  0
   -4.2798   -5.0721   -3.6388 H   0  0
   -5.0055   -5.8251   -4.9269 H   0  0
    0.0960   -0.3357    2.0367 H   0  0
    0.4996    0.2026    3.5531 H   0  0
    1.4508    0.5973    2.2522 H   0  0
   -9.9076   -2.1493    0.0946 H   0  0
   -8.2933   -2.2567   -0.2723 H   0  0
   -9.0427   -3.4919    0.5435 H   0  0
   -3.9810    3.3636   -0.1716 H   0  0
   -5.0099    4.6234    0.1545 H   0  0
   -5.3225    3.1157    0.7725 H   0  0
   -7.9815   -6.4503   -4.9807 H   0  0
    0.3085    3.2834    4.2324 H   0  0
   -8.6494   -2.7819   -4.5943 H   0  0
   -3.3495    2.5654    4.6270 H   0  0
  1  3  1  0
  1  9  1  0
  1 17  1  0
  2  4  1  0
  2 10  1  0
  2 18  1  0
  3  5  1  0
  3 23  1  0
  4  6  1  0
  4 24  1  0
  5  7  1  0
  5 25  1  0
  6  8  1  0
  6 26  1  0
  7 11  1  0
  7 21  1  0
  8 12  1  0
  8 22  1  0
  9 21  1  0
  9 27  1  0
 10 22  1  0
 10 28  1  0
 11 19  1  0
 12 20  1  0
 13 14  1  0
 13 15  1  0
 14 16  1  0
 15 27  1  0
 16 28  1  0
  1 29  1  0
  2 30  1  0
  3 31  1  0
  4 32  1  0
  5 33  1  0
  6 34  1  0
  7 35  1  0
  8 36  1  0
  9 37  1  0
 10 38  1  0
 11 39  1  0
 11 40  1  0
 12 41  1  0
 12 42  1  0
 13 43  1  0
 13 44  1  0
 14 45  1  0
 14 46  1  0
 15 47  1  0
 15 48  1  0
 16 49  1  0
 16 50  1  0
 17 51  1  0
 17 52  1  0
 17 53  1  0
 18 54  1  0
 18 55  1  0
 18 56  1  0
 19 57  1  0
 19 58  1  0
 19 59  1  0
 20 60  1  0
 20 61  1  0
 20 62  1  0
 23 63  1  0
 24 64  1  0
 25 65  1  0
 26 66  1  0
M  CHG  4  17   1  18   1  19   1  20   1
M  END
> <Name>
BR010041

$$$$
BR010042
  SciTegic05062102053D

 37 37  0  0  1  0            999 V2000
   -0.0683    2.8755    4.8210 C   0  0
    0.4994    3.0364    3.6207 C   0  0
    3.0137    2.3298   -1.3826 C   0  0
    2.1367    0.4363   -0.0306 C   0  0  2  0  0  0
    0.9487   -0.5147   -0.1974 C   0  0  2  0  0  0
    1.1071   -1.7342    0.7162 C   0  0  1  0  0  0
    1.4253   -1.3138    2.1559 C   0  0  1  0  0  0
    2.3684    0.7673    1.4470 C   0  0  2  0  0  0
    2.6006    3.5417   -2.1500 C   0  0
    1.6668    2.2417    3.1373 C   0  0
    1.7588   -2.5112    3.0417 C   0  0
    1.9613    1.6381   -0.8134 N   0  0
    4.2013    2.0367   -1.3095 O   0  0
    2.5571   -0.4377    2.1928 O   0  0
    0.9060   -0.9606   -1.5544 O   0  0
   -0.1089   -2.4769    0.6745 O   0  0
    2.0496   -2.0399    4.3446 O   0  0
    1.2894    1.5477    1.9581 O   0  0
   -0.9163    3.4753    5.1326 H   0  0
    0.3129    2.1335    5.5140 H   0  0
    0.0995    3.7948    2.9526 H   0  0
    3.0326   -0.0532   -0.4338 H   0  0
    0.0000    0.0000    0.0000 H   0  0
    1.9025   -2.3757    0.3152 H   0  0
    0.5604   -0.8079    2.6039 H   0  0
    3.2827    1.3640    1.5456 H   0  0
    2.5701    4.4468   -1.5223 H   0  0
    3.2984    3.7788   -2.9690 H   0  0
    1.6074    3.4839   -2.6234 H   0  0
    2.0052    1.5113    3.8789 H   0  0
    2.4978    2.9123    2.8971 H   0  0
    2.6280   -3.0356    2.6454 H   0  0
    0.9072   -3.1898    3.0851 H   0  0
    1.0192    1.9915   -0.9520 H   0  0
    1.7464   -1.4134   -1.7188 H   0  0
   -0.8064   -1.8823    0.9910 H   0  0
    2.2584   -2.8177    4.8897 H   0  0
  1  2  2  0
  2 10  1  0
  3  9  1  0
  3 12  1  0
  3 13  2  0
  4  5  1  0
  4  8  1  0
  4 12  1  0
  5  6  1  0
  5 15  1  0
  6  7  1  0
  6 16  1  0
  7 11  1  0
  7 14  1  0
  8 14  1  0
  8 18  1  0
 10 18  1  0
 11 17  1  0
  1 19  1  0
  1 20  1  0
  2 21  1  0
  4 22  1  0
  5 23  1  0
  6 24  1  0
  7 25  1  0
  8 26  1  0
  9 27  1  0
  9 28  1  0
  9 29  1  0
 10 30  1  0
 10 31  1  0
 11 32  1  0
 11 33  1  0
 12 34  1  0
 15 35  1  0
 16 36  1  0
 17 37  1  0
M  END
> <Name>
BR010042

$$$$
BR010043
  SciTegic05062102053D

 53 54  0  0  1  0            999 V2000
    1.8865   -1.0640    8.9442 C   0  0
    4.2188   -0.8570    8.3489 C   0  0
    1.6660   -1.8443    7.8092 C   0  0
    3.9984   -1.6373    7.2140 C   0  0
    3.1628   -0.5703    9.2140 C   0  0
    2.7220   -2.1310    6.9441 C   0  0
   -0.0683    2.8755    4.8210 C   0  0
    0.4994    3.0364    3.6207 C   0  0
    3.0137    2.3298   -1.3826 C   0  0
    2.1367    0.4363   -0.0306 C   0  0  2  0  0  0
    0.9487   -0.5147   -0.1974 C   0  0  2  0  0  0
    1.1071   -1.7342    0.7162 C   0  0  1  0  0  0
    1.4253   -1.3138    2.1559 C   0  0  1  0  0  0
    2.3684    0.7673    1.4470 C   0  0  2  0  0  0
    3.3987    0.2647   10.4270 C   0  0
    2.6006    3.5417   -2.1500 C   0  0
    1.6668    2.2417    3.1373 C   0  0
    1.7588   -2.5112    3.0417 C   0  0
    1.9613    1.6381   -0.8134 N   0  0
    4.2013    2.0367   -1.3095 O   0  0
    3.7234   -3.7193    5.1837 O   0  0
    1.2723   -3.9337    5.7754 O   0  0
    2.5571   -0.4377    2.1928 O   0  0
    0.9060   -0.9606   -1.5544 O   0  0
   -0.1089   -2.4769    0.6745 O   0  0
    1.2894    1.5477    1.9581 O   0  0
    2.0496   -2.0399    4.3446 O   0  0
    2.4437   -3.1202    5.5090 S   0  0
    1.0576   -0.8455    9.6123 H   0  0
    5.2165   -0.4763    8.5509 H   0  0
    0.6676   -2.2235    7.6080 H   0  0
    4.8282   -1.8542    6.5465 H   0  0
   -0.9163    3.4753    5.1326 H   0  0
    0.3129    2.1335    5.5140 H   0  0
    0.0995    3.7948    2.9526 H   0  0
    3.0326   -0.0532   -0.4338 H   0  0
    0.0000    0.0000    0.0000 H   0  0
    1.9025   -2.3757    0.3152 H   0  0
    0.5604   -0.8079    2.6039 H   0  0
    3.2827    1.3640    1.5456 H   0  0
    3.6723   -0.3689   11.2796 H   0  0
    4.2048    0.9909   10.2604 H   0  0
    2.5031    0.8404   10.6947 H   0  0
    2.5701    4.4468   -1.5223 H   0  0
    3.2984    3.7788   -2.9690 H   0  0
    1.6074    3.4839   -2.6234 H   0  0
    2.0052    1.5113    3.8789 H   0  0
    2.4978    2.9123    2.8971 H   0  0
    2.6280   -3.0356    2.6454 H   0  0
    0.9072   -3.1898    3.0851 H   0  0
    1.0192    1.9915   -0.9520 H   0  0
    1.7464   -1.4134   -1.7188 H   0  0
   -0.8064   -1.8823    0.9910 H   0  0
  1  3  2  0
  1  5  1  0
  2  4  1  0
  2  5  2  0
  3  6  1  0
  4  6  2  0
  5 15  1  0
  6 28  1  0
  7  8  2  0
  8 17  1  0
  9 16  1  0
  9 19  1  0
  9 20  2  0
 10 11  1  0
 10 14  1  0
 10 19  1  0
 11 12  1  0
 11 24  1  0
 12 13  1  0
 12 25  1  0
 13 18  1  0
 13 23  1  0
 14 23  1  0
 14 26  1  0
 17 26  1  0
 18 27  1  0
 21 28  2  0
 22 28  2  0
 27 28  1  0
  1 29  1  0
  2 30  1  0
  3 31  1  0
  4 32  1  0
  7 33  1  0
  7 34  1  0
  8 35  1  0
 10 36  1  0
 11 37  1  0
 12 38  1  0
 13 39  1  0
 14 40  1  0
 15 41  1  0
 15 42  1  0
 15 43  1  0
 16 44  1  0
 16 45  1  0
 16 46  1  0
 17 47  1  0
 17 48  1  0
 18 49  1  0
 18 50  1  0
 19 51  1  0
 24 52  1  0
 25 53  1  0
M  END
> <Name>
BR010043

$$$$
BR010044
  SciTegic05062102053D

 38 38  0  0  1  0            999 V2000
   -0.0683    2.8755    4.8210 C   0  0
    0.4994    3.0364    3.6207 C   0  0
    3.0137    2.3298   -1.3826 C   0  0
    2.1367    0.4363   -0.0306 C   0  0  2  0  0  0
    0.9487   -0.5147   -0.1974 C   0  0  2  0  0  0
    1.1071   -1.7342    0.7162 C   0  0  1  0  0  0
    1.4253   -1.3138    2.1559 C   0  0  1  0  0  0
    2.3684    0.7673    1.4470 C   0  0  2  0  0  0
    2.6006    3.5417   -2.1500 C   0  0
    1.6668    2.2417    3.1373 C   0  0
    1.7588   -2.5112    3.0417 C   0  0
    3.6865   -5.1123    3.6815 N   0  5
    2.9272   -3.1881    2.4902 N   0  0
    3.3224   -4.1927    3.1135 N   0  3
    1.9613    1.6381   -0.8134 N   0  0
    4.2013    2.0367   -1.3095 O   0  0
    2.5571   -0.4377    2.1928 O   0  0
    0.9060   -0.9606   -1.5544 O   0  0
   -0.1089   -2.4769    0.6745 O   0  0
    1.2894    1.5477    1.9581 O   0  0
   -0.9163    3.4753    5.1326 H   0  0
    0.3129    2.1335    5.5140 H   0  0
    0.0995    3.7948    2.9526 H   0  0
    3.0326   -0.0532   -0.4338 H   0  0
    0.0000    0.0000    0.0000 H   0  0
    1.9025   -2.3757    0.3152 H   0  0
    0.5604   -0.8079    2.6039 H   0  0
    3.2827    1.3640    1.5456 H   0  0
    2.5701    4.4468   -1.5223 H   0  0
    3.2984    3.7788   -2.9690 H   0  0
    1.6074    3.4839   -2.6234 H   0  0
    2.0052    1.5113    3.8789 H   0  0
    2.4978    2.9123    2.8971 H   0  0
    0.9108   -3.1962    3.0698 H   0  0
    1.9703   -2.1716    4.0561 H   0  0
    1.0192    1.9915   -0.9520 H   0  0
    1.7464   -1.4134   -1.7188 H   0  0
   -0.8064   -1.8823    0.9910 H   0  0
  1  2  2  0
  2 10  1  0
  3  9  1  0
  3 15  1  0
  3 16  2  0
  4  5  1  0
  4  8  1  0
  4 15  1  0
  5  6  1  0
  5 18  1  0
  6  7  1  0
  6 19  1  0
  7 11  1  0
  7 17  1  0
  8 17  1  0
  8 20  1  0
 10 20  1  0
 11 13  1  0
 12 14  2  0
 13 14  2  0
  1 21  1  0
  1 22  1  0
  2 23  1  0
  4 24  1  0
  5 25  1  0
  6 26  1  0
  7 27  1  0
  8 28  1  0
  9 29  1  0
  9 30  1  0
  9 31  1  0
 10 32  1  0
 10 33  1  0
 11 34  1  0
 11 35  1  0
 15 36  1  0
 18 37  1  0
 19 38  1  0
M  CHG  2  12  -1  14   1
M  END
> <Name>
BR010044

$$$$
BR010045
  SciTegic05062102053D

 39 39  0  0  1  0            999 V2000
   -0.0683    2.8755    4.8210 C   0  0
    0.4994    3.0364    3.6207 C   0  0
    3.0137    2.3298   -1.3826 C   0  0
    2.1367    0.4363   -0.0306 C   0  0  2  0  0  0
    0.9487   -0.5147   -0.1974 C   0  0  2  0  0  0
    1.1071   -1.7342    0.7162 C   0  0  1  0  0  0
    1.4253   -1.3138    2.1559 C   0  0  1  0  0  0
    2.3684    0.7673    1.4470 C   0  0  2  0  0  0
    2.6006    3.5417   -2.1500 C   0  0
    1.6668    2.2417    3.1373 C   0  0
    1.7588   -2.5112    3.0417 C   0  0
    1.9613    1.6381   -0.8134 N   0  0
    2.0924   -2.0221    4.3951 N   0  3
    4.2013    2.0367   -1.3095 O   0  0
    2.5571   -0.4377    2.1928 O   0  0
    0.9060   -0.9606   -1.5544 O   0  0
   -0.1089   -2.4769    0.6745 O   0  0
    1.2894    1.5477    1.9581 O   0  0
   -0.9163    3.4753    5.1326 H   0  0
    0.3129    2.1335    5.5140 H   0  0
    0.0995    3.7948    2.9526 H   0  0
    3.0326   -0.0532   -0.4338 H   0  0
    0.0000    0.0000    0.0000 H   0  0
    1.9025   -2.3757    0.3152 H   0  0
    0.5604   -0.8079    2.6039 H   0  0
    3.2827    1.3640    1.5456 H   0  0
    2.5701    4.4468   -1.5223 H   0  0
    3.2984    3.7788   -2.9690 H   0  0
    1.6074    3.4839   -2.6234 H   0  0
    2.0052    1.5113    3.8789 H   0  0
    2.4978    2.9123    2.8971 H   0  0
    2.6257   -3.0493    2.6622 H   0  0
    0.9044   -3.1796    3.1336 H   0  0
    1.0192    1.9915   -0.9520 H   0  0
    2.1976   -2.8006    5.0579 H   0  0
    1.3579   -1.4015    4.7586 H   0  0
    2.9739   -1.4933    4.3940 H   0  0
    1.7464   -1.4134   -1.7188 H   0  0
   -0.8064   -1.8823    0.9910 H   0  0
  1  2  2  0
  2 10  1  0
  3  9  1  0
  3 12  1  0
  3 14  2  0
  4  5  1  0
  4  8  1  0
  4 12  1  0
  5  6  1  0
  5 16  1  0
  6  7  1  0
  6 17  1  0
  7 11  1  0
  7 15  1  0
  8 15  1  0
  8 18  1  0
 10 18  1  0
 11 13  1  0
  1 19  1  0
  1 20  1  0
  2 21  1  0
  4 22  1  0
  5 23  1  0
  6 24  1  0
  7 25  1  0
  8 26  1  0
  9 27  1  0
  9 28  1  0
  9 29  1  0
 10 30  1  0
 10 31  1  0
 11 32  1  0
 11 33  1  0
 12 34  1  0
 13 35  1  0
 13 36  1  0
 13 37  1  0
 16 38  1  0
 17 39  1  0
M  CHG  1  13   1
M  END
> <Name>
BR010045

$$$$
BR010046
  SciTegic05062102053D

 53 53  0  0  1  0            999 V2000
   -0.0683    2.8755    4.8210 C   0  0
    0.4994    3.0364    3.6207 C   0  0
    3.0137    2.3298   -1.3826 C   0  0
    1.0990   -1.9262    5.3666 C   0  0
   -0.3355   -1.2545   -2.0379 C   0  0
   -0.0112   -3.7440    0.1738 C   0  0
    2.1367    0.4363   -0.0306 C   0  0  2  0  0  0
    0.9487   -0.5147   -0.1974 C   0  0  2  0  0  0
    1.1071   -1.7342    0.7162 C   0  0  1  0  0  0
    1.4253   -1.3138    2.1559 C   0  0  1  0  0  0
    2.3684    0.7673    1.4470 C   0  0  2  0  0  0
    2.6006    3.5417   -2.1500 C   0  0
    1.6340   -1.4483    6.6756 C   0  0
   -0.2265   -1.7053   -3.4630 C   0  0
   -1.3582   -4.4006    0.1913 C   0  0
    1.6668    2.2417    3.1373 C   0  0
    1.7588   -2.5112    3.0417 C   0  0
    1.9613    1.6381   -0.8134 N   0  0
    2.0547   -2.0673    4.3624 N   0  0
    4.2013    2.0367   -1.3095 O   0  0
   -0.0985   -2.1596    5.2522 O   0  0
   -1.3908   -1.1711   -1.4244 O   0  0
    1.0089   -4.2836   -0.2330 O   0  0
    2.5571   -0.4377    2.1928 O   0  0
    0.9060   -0.9606   -1.5544 O   0  0
   -0.1089   -2.4769    0.6745 O   0  0
    1.2894    1.5477    1.9581 O   0  0
   -0.9163    3.4753    5.1326 H   0  0
    0.3129    2.1335    5.5140 H   0  0
    0.0995    3.7948    2.9526 H   0  0
    3.0326   -0.0532   -0.4338 H   0  0
    0.0000    0.0000    0.0000 H   0  0
    1.9025   -2.3757    0.3152 H   0  0
    0.5604   -0.8079    2.6039 H   0  0
    3.2827    1.3640    1.5456 H   0  0
    2.5701    4.4468   -1.5223 H   0  0
    3.2984    3.7788   -2.9690 H   0  0
    1.6074    3.4839   -2.6234 H   0  0
    1.6255   -0.3495    6.7574 H   0  0
    1.0385   -1.8084    7.5299 H   0  0
    2.6706   -1.7474    6.8987 H   0  0
   -0.3063   -0.8445   -4.1314 H   0  0
   -1.0086   -2.4368   -3.6815 H   0  0
    0.7467   -2.1795   -3.6200 H   0  0
   -1.5045   -4.9217    1.1407 H   0  0
   -1.4427   -5.0963   -0.6473 H   0  0
   -2.1351   -3.6373    0.0893 H   0  0
    2.0052    1.5113    3.8789 H   0  0
    2.4978    2.9123    2.8971 H   0  0
    2.6230   -3.0174    2.6317 H   0  0
    0.9063   -3.1767    3.0704 H   0  0
    1.0192    1.9915   -0.9520 H   0  0
    3.0284   -1.8382    4.5875 H   0  0
  1  2  2  0
  2 16  1  0
  3 12  1  0
  3 18  1  0
  3 20  2  0
  4 13  1  0
  4 19  1  0
  4 21  2  0
  5 14  1  0
  5 22  2  0
  5 25  1  0
  6 15  1  0
  6 23  2  0
  6 26  1  0
  7  8  1  0
  7 11  1  0
  7 18  1  0
  8  9  1  0
  8 25  1  0
  9 10  1  0
  9 26  1  0
 10 17  1  0
 10 24  1  0
 11 24  1  0
 11 27  1  0
 16 27  1  0
 17 19  1  0
  1 28  1  0
  1 29  1  0
  2 30  1  0
  7 31  1  0
  8 32  1  0
  9 33  1  0
 10 34  1  0
 11 35  1  0
 12 36  1  0
 12 37  1  0
 12 38  1  0
 13 39  1  0
 13 40  1  0
 13 41  1  0
 14 42  1  0
 14 43  1  0
 14 44  1  0
 15 45  1  0
 15 46  1  0
 15 47  1  0
 16 48  1  0
 16 49  1  0
 17 50  1  0
 17 51  1  0
 18 52  1  0
 19 53  1  0
M  END
> <Name>
BR010046

$$$$
BR010047
  SciTegic05062102053D

 73 73  0  0  1  0            999 V2000
    0.1576    2.2202    5.1319 C   0  0
    0.4316    2.6272    3.8836 C   0  0
    3.0137    2.3298   -1.3826 C   0  0
    1.0990   -1.9262    5.3666 C   0  0
   -0.3355   -1.2545   -2.0379 C   0  0
   -0.0112   -3.7440    0.1738 C   0  0
   -2.7661    0.8306    5.4555 C   0  0
    2.1367    0.4363   -0.0306 C   0  0  2  0  0  0
    0.9487   -0.5147   -0.1974 C   0  0  2  0  0  0
    1.1071   -1.7342    0.7162 C   0  0  1  0  0  0
    1.4253   -1.3138    2.1559 C   0  0  1  0  0  0
    2.3684    0.7673    1.4470 C   0  0  2  0  0  0
    2.6006    3.5417   -2.1500 C   0  0
    1.6340   -1.4483    6.6756 C   0  0
   -0.2265   -1.7053   -3.4630 C   0  0
   -1.3582   -4.4006    0.1913 C   0  0
   -3.7034   -1.4606    4.0337 C   0  0
   -4.6883   -2.1885    6.2267 C   0  0
   -5.4687   -0.0573    5.1511 C   0  0
   -1.0762    2.6101    5.8776 C   0  0
    1.6668    2.2417    3.1373 C   0  0
    1.7588   -2.5112    3.0417 C   0  0
   -4.2803   -0.9927    5.3689 C   0  0
    1.9613    1.6381   -0.8134 N   0  0
    2.0547   -2.0673    4.3624 N   0  0
   -1.7959    1.4237    6.2448 N   0  0
    4.2013    2.0367   -1.3095 O   0  0
   -0.0985   -2.1596    5.2522 O   0  0
   -1.3908   -1.1711   -1.4244 O   0  0
    1.0089   -4.2836   -0.2330 O   0  0
   -3.1328    1.2338    4.3567 O   0  0
    2.5571   -0.4377    2.1928 O   0  0
    0.9060   -0.9606   -1.5544 O   0  0
   -0.1089   -2.4769    0.6745 O   0  0
   -3.2626   -0.2789    6.0800 O   0  0
    1.2894    1.5477    1.9581 O   0  0
    0.8683    1.5822    5.6521 H   0  0
   -0.2764    3.2671    3.3626 H   0  0
    3.0326   -0.0532   -0.4338 H   0  0
    0.0000    0.0000    0.0000 H   0  0
    1.9025   -2.3757    0.3152 H   0  0
    0.5604   -0.8079    2.6039 H   0  0
    3.2827    1.3640    1.5456 H   0  0
    2.5701    4.4468   -1.5223 H   0  0
    3.2984    3.7788   -2.9690 H   0  0
    1.6074    3.4839   -2.6234 H   0  0
    1.6255   -0.3495    6.7574 H   0  0
    1.0385   -1.8084    7.5299 H   0  0
    2.6706   -1.7474    6.8987 H   0  0
   -0.3063   -0.8445   -4.1314 H   0  0
   -1.0086   -2.4368   -3.6815 H   0  0
    0.7467   -2.1795   -3.6200 H   0  0
   -1.5045   -4.9217    1.1407 H   0  0
   -1.4427   -5.0963   -0.6473 H   0  0
   -2.1351   -3.6373    0.0893 H   0  0
   -3.4093   -0.6052    3.4150 H   0  0
   -2.8290   -2.1042    4.1754 H   0  0
   -4.4521   -2.0160    3.4573 H   0  0
   -5.1029   -1.8574    7.1857 H   0  0
   -3.8194   -2.8125    6.4650 H   0  0
   -5.4347   -2.8112    5.7229 H   0  0
   -5.8828    0.2785    6.1087 H   0  0
   -5.1857    0.8254    4.5684 H   0  0
   -6.2809   -0.5745    4.6275 H   0  0
   -0.8147    3.1451    6.7952 H   0  0
   -1.7477    3.2391    5.2851 H   0  0
    2.2675    3.1114    2.8528 H   0  0
    2.2793    1.5761    3.7534 H   0  0
    2.6230   -3.0174    2.6317 H   0  0
    0.9063   -3.1767    3.0704 H   0  0
    1.0192    1.9915   -0.9520 H   0  0
    3.0284   -1.8382    4.5875 H   0  0
   -1.5789    0.9910    7.1423 H   0  0
  1  2  2  0
  1 20  1  0
  2 21  1  0
  3 13  1  0
  3 24  1  0
  3 27  2  0
  4 14  1  0
  4 25  1  0
  4 28  2  0
  5 15  1  0
  5 29  2  0
  5 33  1  0
  6 16  1  0
  6 30  2  0
  6 34  1  0
  7 26  1  0
  7 31  2  0
  7 35  1  0
  8  9  1  0
  8 12  1  0
  8 24  1  0
  9 10  1  0
  9 33  1  0
 10 11  1  0
 10 34  1  0
 11 22  1  0
 11 32  1  0
 12 32  1  0
 12 36  1  0
 17 23  1  0
 18 23  1  0
 19 23  1  0
 20 26  1  0
 21 36  1  0
 22 25  1  0
 23 35  1  0
  1 37  1  0
  2 38  1  0
  8 39  1  0
  9 40  1  0
 10 41  1  0
 11 42  1  0
 12 43  1  0
 13 44  1  0
 13 45  1  0
 13 46  1  0
 14 47  1  0
 14 48  1  0
 14 49  1  0
 15 50  1  0
 15 51  1  0
 15 52  1  0
 16 53  1  0
 16 54  1  0
 16 55  1  0
 17 56  1  0
 17 57  1  0
 17 58  1  0
 18 59  1  0
 18 60  1  0
 18 61  1  0
 19 62  1  0
 19 63  1  0
 19 64  1  0
 20 65  1  0
 20 66  1  0
 21 67  1  0
 21 68  1  0
 22 69  1  0
 22 70  1  0
 24 71  1  0
 25 72  1  0
 26 73  1  0
M  END
> <Name>
BR010047

$$$$
BR010048
  SciTegic05062102053D

100101  0  0  1  0            999 V2000
    0.0644    3.3317    4.6495 C   0  0
    1.0755    2.9507    3.8553 C   0  0
   -3.6927    7.1521    7.0528 C   0  0
    3.8072   -0.4969   -0.0371 C   0  0
    0.9660    5.6655    0.2268 C   0  0
   -3.7595    2.0171    2.5957 C   0  0
   -5.8163    6.7853    2.5976 C   0  0
    0.6869    1.7518   -3.1517 C   0  0
   -3.7765    7.7175    0.1148 C   0  0
   -2.5226    1.2339   -2.3612 C   0  0
   -2.9018    7.1037    4.6960 C   0  0  2  0  0  0
    1.4006    0.1277   -0.0129 C   0  0  2  0  0  0
   -3.5812    6.7743    3.3644 C   0  0  2  0  0  0
    0.5336    1.0120   -0.9127 C   0  0  2  0  0  0
   -2.7369    7.2846    2.1922 C   0  0  1  0  0  0
   -0.9522    0.7296   -0.6689 C   0  0  1  0  0  0
   -1.2761    6.8373    2.3220 C   0  0  1  0  0  0
   -1.2887    0.7703    0.8264 C   0  0  1  0  0  0
   -1.4457    6.6277    4.6990 C   0  0  2  0  0  0
    0.9584    0.2366    1.4498 C   0  0  2  0  0  0
   -4.5082    6.4042    8.0547 C   0  0
    5.1819    0.0523   -0.2289 C   0  0
    2.3114    5.0191    0.2451 C   0  0
   -4.1083    2.3027    4.0187 C   0  0
   -7.0904    7.5727    2.6496 C   0  0
    1.0408    1.2979   -4.5354 C   0  0
   -4.3401    7.0436   -1.0994 C   0  0
   -3.2513    2.3712   -3.0104 C   0  0
   -0.1276    4.7314    5.1342 C   0  0
    1.2731    1.5489    3.3787 C   0  0
   -0.3847    7.4785    1.2619 C   0  0
   -2.7207    0.3209    1.1036 C   0  0
   -3.6345    6.5487    5.8108 N   0  0
    2.8028    0.4445   -0.1591 N   0  0
    0.8155    6.7245    1.1198 N   0  0
   -3.1349    0.7898    2.3833 N   0  0
   -3.1531    8.2036    7.3768 O   0  0
    3.6612   -1.6897    0.2032 O   0  0
    0.1058    5.2486   -0.5400 O   0  0
   -4.0311    2.8409    1.7300 O   0  0
   -5.6851    5.7340    1.9855 O   0  0
    0.3204    2.8861   -2.8754 O   0  0
   -3.7536    8.9301    0.2769 O   0  0
   -2.6545    0.0614   -2.6852 O   0  0
   -0.7414    7.2065    3.5977 O   0  0
   -0.4260   -0.1000    1.5668 O   0  0
   -4.8550    7.4210    3.3278 O   0  0
    0.8389    0.7158   -2.2770 O   0  0
   -3.3047    6.7780    0.9868 O   0  0
   -1.7087    1.7112   -1.3735 O   0  0
   -1.3871    5.2028    4.6802 O   0  0
    1.2355    1.5399    1.9585 O   0  0
   -0.6642    2.5946    4.9779 H   0  0
    1.8092    3.6861    3.5342 H   0  0
   -2.9242    8.1920    4.8375 H   0  0
    1.2949   -0.9136   -0.3435 H   0  0
   -3.7668    5.6969    3.2714 H   0  0
    0.7593    2.0745   -0.7580 H   0  0
   -2.8052    8.3796    2.1574 H   0  0
   -1.2006   -0.2509   -1.0953 H   0  0
   -1.1995    5.7495    2.1976 H   0  0
   -1.1881    1.7935    1.2107 H   0  0
   -0.9558    6.9660    5.6195 H   0  0
    1.5261   -0.4792    2.0549 H   0  0
   -3.9090    5.6775    8.6265 H   0  0
   -4.9590    7.0680    8.8098 H   0  0
   -5.3485    5.8245    7.6402 H   0  0
    5.6306    0.4018    0.7149 H   0  0
    5.8838   -0.6996   -0.6239 H   0  0
    5.2556    0.9080   -0.9190 H   0  0
    2.3688    4.1878    0.9660 H   0  0
    2.5797    4.5790   -0.7288 H   0  0
    3.1506    5.6848    0.5030 H   0  0
   -3.2976    2.8225    4.5543 H   0  0
   -4.9874    2.9604    4.1123 H   0  0
   -4.3414    1.4186    4.6334 H   0  0
   -7.6947    7.2446    3.4989 H   0  0
   -7.6413    7.4491    1.7138 H   0  0
   -6.8562    8.6335    2.7776 H   0  0
    2.1054    1.4625   -4.7189 H   0  0
    0.4353    1.8366   -5.2687 H   0  0
    0.8319    0.2283   -4.6307 H   0  0
   -3.5573    6.9198   -1.8518 H   0  0
   -5.1694    7.6325   -1.4992 H   0  0
   -4.7174    6.0548   -0.8230 H   0  0
   -4.1961    2.5508   -2.4914 H   0  0
   -3.4278    2.1449   -4.0650 H   0  0
   -2.6409    3.2766   -2.9466 H   0  0
    0.6508    5.4077    4.7667 H   0  0
   -0.1220    4.7487    6.2285 H   0  0
    0.4988    0.8712    3.7522 H   0  0
    2.2510    1.1815    3.7048 H   0  0
   -0.1403    8.4852    1.5752 H   0  0
   -0.9130    7.4915    0.3179 H   0  0
   -2.7548   -0.7607    1.0901 H   0  0
   -3.3724    0.7316    0.3439 H   0  0
   -4.1307    5.6728    5.6752 H   0  0
    3.0628    1.4054   -0.3613 H   0  0
    1.6158    6.9758    1.7093 H   0  0
   -2.9633    0.1888    3.1961 H   0  0
  1  2  2  0
  1 29  1  0
  2 30  1  0
  3 21  1  0
  3 33  1  0
  3 37  2  0
  4 22  1  0
  4 34  1  0
  4 38  2  0
  5 23  1  0
  5 35  1  0
  5 39  2  0
  6 24  1  0
  6 36  1  0
  6 40  2  0
  7 25  1  0
  7 41  2  0
  7 47  1  0
  8 26  1  0
  8 42  2  0
  8 48  1  0
  9 27  1  0
  9 43  2  0
  9 49  1  0
 10 28  1  0
 10 44  2  0
 10 50  1  0
 11 13  1  0
 11 19  1  0
 11 33  1  0
 12 14  1  0
 12 20  1  0
 12 34  1  0
 13 15  1  0
 13 47  1  0
 14 16  1  0
 14 48  1  0
 15 17  1  0
 15 49  1  0
 16 18  1  0
 16 50  1  0
 17 31  1  0
 17 45  1  0
 18 32  1  0
 18 46  1  0
 19 45  1  0
 19 51  1  0
 20 46  1  0
 20 52  1  0
 29 51  1  0
 30 52  1  0
 31 35  1  0
 32 36  1  0
  1 53  1  0
  2 54  1  0
 11 55  1  0
 12 56  1  0
 13 57  1  0
 14 58  1  0
 15 59  1  0
 16 60  1  0
 17 61  1  0
 18 62  1  0
 19 63  1  0
 20 64  1  0
 21 65  1  0
 21 66  1  0
 21 67  1  0
 22 68  1  0
 22 69  1  0
 22 70  1  0
 23 71  1  0
 23 72  1  0
 23 73  1  0
 24 74  1  0
 24 75  1  0
 24 76  1  0
 25 77  1  0
 25 78  1  0
 25 79  1  0
 26 80  1  0
 26 81  1  0
 26 82  1  0
 27 83  1  0
 27 84  1  0
 27 85  1  0
 28 86  1  0
 28 87  1  0
 28 88  1  0
 29 89  1  0
 29 90  1  0
 30 91  1  0
 30 92  1  0
 31 93  1  0
 31 94  1  0
 32 95  1  0
 32 96  1  0
 33 97  1  0
 34 98  1  0
 35 99  1  0
 36100  1  0
M  END
> <Name>
BR010048

$$$$
BR010049
  SciTegic05062102053D

100101  0  0  1  0            999 V2000
   -2.0264    2.4420    1.5938 C   0  0
   -1.0443    1.5300    1.5492 C   0  0
   -5.3572    5.8826   -1.3944 C   0  0
    1.4790    0.2113   -3.3258 C   0  0
    2.1930    5.3080   -0.0555 C   0  0
    3.2235    1.0372    4.6495 C   0  0
   -3.3481    3.6518   -5.3290 C   0  0
    2.7325   -3.9758   -1.0042 C   0  0
   -0.0514    4.1717   -5.5638 C   0  0
    4.7311   -3.4447    1.6260 C   0  0
   -3.0601    5.2618   -2.1159 C   0  0  2  0  0  0
    2.4298   -0.3846   -1.1070 C   0  0  2  0  0  0
   -2.5124    4.3827   -3.2430 C   0  0  2  0  0  0
    2.5997   -1.7074   -0.3556 C   0  0  2  0  0  0
   -1.0238    4.6664   -3.4678 C   0  0  1  0  0  0
    3.5979   -1.5449    0.7951 C   0  0  1  0  0  0
   -0.2429    4.6201   -2.1491 C   0  0  1  0  0  0
    3.2552   -0.3273    1.6616 C   0  0  1  0  0  0
   -2.1886    5.1476   -0.8612 C   0  0  2  0  0  0
    2.1105    0.7575   -0.1372 C   0  0  2  0  0  0
   -6.7239    5.3320   -1.1555 C   0  0
    0.3330   -0.0543   -4.2446 C   0  0
    3.0544    4.6190    0.9502 C   0  0
    2.9648    2.3588    5.2935 C   0  0
   -4.1113    4.1110   -6.5343 C   0  0
    3.3296   -4.8887   -2.0318 C   0  0
    0.4421    3.0383   -6.4111 C   0  0
    4.5487   -4.6623    2.4806 C   0  0
   -1.8924    3.8319    1.0634 C   0  0
    0.3047    1.7918    0.9635 C   0  0
    1.2048    5.0707   -2.3248 C   0  0
    4.3326   -0.0457    2.7053 C   0  0
   -4.4390    4.9433   -1.8242 N   0  0
    1.4222   -0.4914   -2.1371 N   0  0
    1.9933    4.5971   -1.2372 N   0  0
    3.9719    1.0969    3.4757 N   0  0
   -5.1445    7.0746   -1.2055 O   0  0
    2.3567    0.9960   -3.6659 O   0  0
    1.7279    6.4120    0.2024 O   0  0
    2.7840    0.0168    5.1665 O   0  0
   -2.9140    2.5171   -5.1842 O   0  0
    2.0228   -4.3536   -0.0817 O   0  0
   -0.0260    5.3458   -5.9076 O   0  0
    5.7785   -3.1517    1.0655 O   0  0
   -0.8355    5.4860   -1.1750 O   0  0
    3.1320    0.8516    0.8585 O   0  0
   -3.2234    4.6840   -4.4455 O   0  0
    3.1032   -2.6888   -1.2642 O   0  0
   -0.5211    3.6891   -4.3756 O   0  0
    3.5648   -2.7353    1.5786 O   0  0
   -2.2951    3.8417   -0.2976 O   0  0
    0.8186    0.5754    0.4393 O   0  0
   -2.9802    2.1787    2.0445 H   0  0
   -1.2207    0.5346    1.9493 H   0  0
   -3.0617    6.3047   -2.4583 H   0  0
    3.3679   -0.1595   -1.6305 H   0  0
   -2.6791    3.3191   -3.0310 H   0  0
    1.6356   -2.0786    0.0139 H   0  0
   -0.9192    5.6491   -3.9456 H   0  0
    4.6082   -1.4503    0.3764 H   0  0
   -0.2198    3.5952   -1.7571 H   0  0
    2.3150   -0.4979    2.2018 H   0  0
   -2.5421    5.8617   -0.1083 H   0  0
    2.0940    1.7059   -0.6860 H   0  0
   -6.8597    4.9779   -0.1210 H   0  0
   -7.5136    6.0844   -1.3117 H   0  0
   -7.0065    4.4791   -1.7932 H   0  0
   -0.5096    0.6354   -4.0762 H   0  0
    0.6057    0.0725   -5.3046 H   0  0
   -0.1015   -1.0645   -4.1764 H   0  0
    4.1215    4.8654    0.8292 H   0  0
    2.8049    4.9058    1.9844 H   0  0
    3.0077    3.5183    0.9357 H   0  0
    2.0348    2.8273    4.9333 H   0  0
    2.8459    2.2781    6.3860 H   0  0
    3.7489    3.1180    5.1429 H   0  0
   -5.1806    3.9453   -6.3815 H   0  0
   -3.7612    3.5763   -7.4209 H   0  0
   -3.9423    5.1812   -6.6845 H   0  0
    2.6450   -4.9939   -2.8771 H   0  0
    3.5419   -5.8629   -1.5841 H   0  0
    4.2687   -4.4610   -2.3949 H   0  0
    1.5009    2.8581   -6.2094 H   0  0
    0.2849    3.2693   -7.4678 H   0  0
   -0.1187    2.1316   -6.1663 H   0  0
    4.7959   -4.4271    3.5188 H   0  0
    5.1787   -5.4743    2.1088 H   0  0
    3.5042   -4.9840    2.4353 H   0  0
   -0.8640    4.2018    1.1254 H   0  0
   -2.5448    4.5075    1.6254 H   0  0
    1.0109    2.1776    1.7056 H   0  0
    0.2197    2.5158    0.1472 H   0  0
    1.2328    6.1524   -2.3434 H   0  0
    1.5907    4.6642   -3.2502 H   0  0
    5.2684    0.1462    2.1965 H   0  0
    4.4236   -0.9034    3.3584 H   0  0
   -4.7484    3.9829   -1.9407 H   0  0
    0.6343   -1.1129   -1.9802 H   0  0
    2.4404    3.6790   -1.3292 H   0  0
    4.2813    2.0176    3.1471 H   0  0
  1  2  2  0
  1 29  1  0
  2 30  1  0
  3 21  1  0
  3 33  1  0
  3 37  2  0
  4 22  1  0
  4 34  1  0
  4 38  2  0
  5 23  1  0
  5 35  1  0
  5 39  2  0
  6 24  1  0
  6 36  1  0
  6 40  2  0
  7 25  1  0
  7 41  2  0
  7 47  1  0
  8 26  1  0
  8 42  2  0
  8 48  1  0
  9 27  1  0
  9 43  2  0
  9 49  1  0
 10 28  1  0
 10 44  2  0
 10 50  1  0
 11 13  1  0
 11 19  1  0
 11 33  1  0
 12 14  1  0
 12 20  1  0
 12 34  1  0
 13 15  1  0
 13 47  1  0
 14 16  1  0
 14 48  1  0
 15 17  1  0
 15 49  1  0
 16 18  1  0
 16 50  1  0
 17 31  1  0
 17 45  1  0
 18 32  1  0
 18 46  1  0
 19 45  1  0
 19 51  1  0
 20 46  1  0
 20 52  1  0
 29 51  1  0
 30 52  1  0
 31 35  1  0
 32 36  1  0
  1 53  1  0
  2 54  1  0
 11 55  1  0
 12 56  1  0
 13 57  1  0
 14 58  1  0
 15 59  1  0
 16 60  1  0
 17 61  1  0
 18 62  1  0
 19 63  1  0
 20 64  1  0
 21 65  1  0
 21 66  1  0
 21 67  1  0
 22 68  1  0
 22 69  1  0
 22 70  1  0
 23 71  1  0
 23 72  1  0
 23 73  1  0
 24 74  1  0
 24 75  1  0
 24 76  1  0
 25 77  1  0
 25 78  1  0
 25 79  1  0
 26 80  1  0
 26 81  1  0
 26 82  1  0
 27 83  1  0
 27 84  1  0
 27 85  1  0
 28 86  1  0
 28 87  1  0
 28 88  1  0
 29 89  1  0
 29 90  1  0
 30 91  1  0
 30 92  1  0
 31 93  1  0
 31 94  1  0
 32 95  1  0
 32 96  1  0
 33 97  1  0
 34 98  1  0
 35 99  1  0
 36100  1  0
M  END
> <Name>
BR010049

$$$$
BR010050
  SciTegic05062102053D

 74 75  0  0  1  0            999 V2000
    3.0137    2.3298   -1.3826 C   0  0
    1.0990   -1.9262    5.3666 C   0  0
   -0.3355   -1.2545   -2.0379 C   0  0
   -0.0112   -3.7440    0.1738 C   0  0
   -3.0115    1.9019    3.1848 C   0  0
    2.1367    0.4363   -0.0306 C   0  0  2  0  0  0
    0.9487   -0.5147   -0.1974 C   0  0  2  0  0  0
    1.1071   -1.7342    0.7162 C   0  0  1  0  0  0
    1.4253   -1.3138    2.1559 C   0  0  1  0  0  0
   -0.3820    3.8467    3.5036 C   0  0  1  0  0  0
    0.4189    2.6354    3.8985 C   0  0  1  0  0  0
    2.3684    0.7673    1.4470 C   0  0  2  0  0  0
    2.6006    3.5417   -2.1500 C   0  0
    1.6340   -1.4483    6.6756 C   0  0
   -0.2265   -1.7053   -3.4630 C   0  0
   -1.3582   -4.4006    0.1913 C   0  0
   -5.0590   -0.0560    3.5374 C   0  0
   -5.1411   -0.1526    1.0287 C   0  0
   -3.0356   -0.7974    2.2369 C   0  0
    1.7588   -2.5112    3.0417 C   0  0
   -1.8149    3.9732    3.8768 C   0  0
    1.6668    2.2417    3.1373 C   0  0
   -4.2599    0.1170    2.2465 C   0  0
    1.9613    1.6381   -0.8134 N   0  0
    2.0547   -2.0673    4.3624 N   0  0
   -2.6564    3.2227    2.9834 N   0  0
    4.2013    2.0367   -1.3095 O   0  0
   -0.0985   -2.1596    5.2522 O   0  0
   -1.3908   -1.1711   -1.4244 O   0  0
    1.0089   -4.2836   -0.2330 O   0  0
   -2.6634    1.2070    4.1338 O   0  0
    0.5257    3.8741    4.6137 O   0  0
    2.5571   -0.4377    2.1928 O   0  0
    0.9060   -0.9606   -1.5544 O   0  0
   -0.1089   -2.4769    0.6745 O   0  0
   -3.8148    1.4756    2.1647 O   0  0
    1.2894    1.5477    1.9581 O   0  0
    3.0326   -0.0532   -0.4338 H   0  0
    0.0000    0.0000    0.0000 H   0  0
    1.9025   -2.3757    0.3152 H   0  0
    0.5604   -0.8079    2.6039 H   0  0
   -0.1165    4.3972    2.6119 H   0  0
   -0.0715    1.8042    4.3854 H   0  0
    3.2827    1.3640    1.5456 H   0  0
    2.5701    4.4468   -1.5223 H   0  0
    3.2984    3.7788   -2.9690 H   0  0
    1.6074    3.4839   -2.6234 H   0  0
    1.6255   -0.3495    6.7574 H   0  0
    1.0385   -1.8084    7.5299 H   0  0
    2.6706   -1.7474    6.8987 H   0  0
   -0.3063   -0.8445   -4.1314 H   0  0
   -1.0086   -2.4368   -3.6815 H   0  0
    0.7467   -2.1795   -3.6200 H   0  0
   -1.5045   -4.9217    1.1407 H   0  0
   -1.4427   -5.0963   -0.6473 H   0  0
   -2.1351   -3.6373    0.0893 H   0  0
   -4.4299    0.1366    4.4138 H   0  0
   -5.9201    0.6192    3.5722 H   0  0
   -5.4219   -1.0854    3.6376 H   0  0
   -4.5718   -0.0296    0.1003 H   0  0
   -5.9693    0.5636    0.9801 H   0  0
   -5.5584   -1.1645    1.0481 H   0  0
   -2.4623   -0.6734    1.3111 H   0  0
   -2.3728   -0.5928    3.0839 H   0  0
   -3.3357   -1.8508    2.2761 H   0  0
    2.6230   -3.0174    2.6317 H   0  0
    0.9063   -3.1767    3.0704 H   0  0
   -2.1366    5.0198    3.8327 H   0  0
   -1.9914    3.5967    4.8904 H   0  0
    2.2967    1.5860    3.7458 H   0  0
    2.2408    3.1294    2.8554 H   0  0
    1.0192    1.9915   -0.9520 H   0  0
    3.0284   -1.8382    4.5875 H   0  0
   -3.0117    3.6925    2.1528 H   0  0
  1 13  1  0
  1 24  1  0
  1 27  2  0
  2 14  1  0
  2 25  1  0
  2 28  2  0
  3 15  1  0
  3 29  2  0
  3 34  1  0
  4 16  1  0
  4 30  2  0
  4 35  1  0
  5 26  1  0
  5 31  2  0
  5 36  1  0
  6  7  1  0
  6 12  1  0
  6 24  1  0
  7  8  1  0
  7 34  1  0
  8  9  1  0
  8 35  1  0
  9 20  1  0
  9 33  1  0
 10 11  1  0
 10 21  1  0
 10 32  1  0
 11 22  1  0
 11 32  1  0
 12 33  1  0
 12 37  1  0
 17 23  1  0
 18 23  1  0
 19 23  1  0
 20 25  1  0
 21 26  1  0
 22 37  1  0
 23 36  1  0
  6 38  1  0
  7 39  1  0
  8 40  1  0
  9 41  1  0
 10 42  1  0
 11 43  1  0
 12 44  1  0
 13 45  1  0
 13 46  1  0
 13 47  1  0
 14 48  1  0
 14 49  1  0
 14 50  1  0
 15 51  1  0
 15 52  1  0
 15 53  1  0
 16 54  1  0
 16 55  1  0
 16 56  1  0
 17 57  1  0
 17 58  1  0
 17 59  1  0
 18 60  1  0
 18 61  1  0
 18 62  1  0
 19 63  1  0
 19 64  1  0
 19 65  1  0
 20 66  1  0
 20 67  1  0
 21 68  1  0
 21 69  1  0
 22 70  1  0
 22 71  1  0
 24 72  1  0
 25 73  1  0
 26 74  1  0
M  END
> <Name>
BR010050

$$$$
BR010051
  SciTegic05062102053D

 74 75  0  0  1  0            999 V2000
    3.0137    2.3298   -1.3826 C   0  0
    1.0990   -1.9262    5.3666 C   0  0
   -0.3355   -1.2545   -2.0379 C   0  0
   -0.0112   -3.7440    0.1738 C   0  0
   -0.5578    4.9596   -0.1141 C   0  0
    2.1367    0.4363   -0.0306 C   0  0  2  0  0  0
    0.9487   -0.5147   -0.1974 C   0  0  2  0  0  0
    1.1071   -1.7342    0.7162 C   0  0  1  0  0  0
    1.4253   -1.3138    2.1559 C   0  0  1  0  0  0
    0.1001    4.3896    3.0546 C   0  0  2  0  0  0
    0.4867    3.0500    3.6328 C   0  0  1  0  0  0
    2.3684    0.7673    1.4470 C   0  0  2  0  0  0
    2.6006    3.5417   -2.1500 C   0  0
    1.6340   -1.4483    6.6756 C   0  0
   -0.2265   -1.7053   -3.4630 C   0  0
   -1.3582   -4.4006    0.1913 C   0  0
   -1.4412    6.0512   -2.5996 C   0  0
   -1.6194    3.6675   -3.3710 C   0  0
   -3.0354    4.4725   -1.4592 C   0  0
    1.7588   -2.5112    3.0417 C   0  0
    0.8416    5.0423    1.9440 C   0  0
    1.6668    2.2417    3.1373 C   0  0
   -1.6887    4.6064   -2.1686 C   0  0
    1.9613    1.6381   -0.8134 N   0  0
    2.0547   -2.0673    4.3624 N   0  0
    0.4755    4.4822    0.6707 N   0  0
    4.2013    2.0367   -1.3095 O   0  0
   -0.0985   -2.1596    5.2522 O   0  0
   -1.3908   -1.1711   -1.4244 O   0  0
    1.0089   -4.2836   -0.2330 O   0  0
   -1.2861    5.9062    0.1653 O   0  0
    0.8315    4.2806    4.2833 O   0  0
    2.5571   -0.4377    2.1928 O   0  0
    0.9060   -0.9606   -1.5544 O   0  0
   -0.1089   -2.4769    0.6745 O   0  0
   -0.6533    4.2187   -1.2583 O   0  0
    1.2894    1.5477    1.9581 O   0  0
    3.0326   -0.0532   -0.4338 H   0  0
    0.0000    0.0000    0.0000 H   0  0
    1.9025   -2.3757    0.3152 H   0  0
    0.5604   -0.8079    2.6039 H   0  0
   -0.9398    4.6842    3.1017 H   0  0
   -0.2921    2.4397    4.0703 H   0  0
    3.2827    1.3640    1.5456 H   0  0
    2.5701    4.4468   -1.5223 H   0  0
    3.2984    3.7788   -2.9690 H   0  0
    1.6074    3.4839   -2.6234 H   0  0
    1.6255   -0.3495    6.7574 H   0  0
    1.0385   -1.8084    7.5299 H   0  0
    2.6706   -1.7474    6.8987 H   0  0
   -0.3063   -0.8445   -4.1314 H   0  0
   -1.0086   -2.4368   -3.6815 H   0  0
    0.7467   -2.1795   -3.6200 H   0  0
   -1.5045   -4.9217    1.1407 H   0  0
   -1.4427   -5.0963   -0.6473 H   0  0
   -2.1351   -3.6373    0.0893 H   0  0
   -1.4900    6.7283   -1.7393 H   0  0
   -0.4635    6.1675   -3.0785 H   0  0
   -2.2126    6.3874   -3.3018 H   0  0
   -1.7964    2.6296   -3.0664 H   0  0
   -0.6229    3.6897   -3.8267 H   0  0
   -2.3562    3.9349   -4.1354 H   0  0
   -3.2131    3.4362   -1.1499 H   0  0
   -3.0893    5.1119   -0.5721 H   0  0
   -3.8584    4.7399   -2.1318 H   0  0
    2.6230   -3.0174    2.6317 H   0  0
    0.9063   -3.1767    3.0704 H   0  0
    1.9220    4.9068    2.0665 H   0  0
    0.6269    6.1160    1.9064 H   0  0
    1.9763    1.5123    3.8917 H   0  0
    2.5112    2.8976    2.9053 H   0  0
    1.0192    1.9915   -0.9520 H   0  0
    3.0284   -1.8382    4.5875 H   0  0
    1.0094    3.6864    0.3266 H   0  0
  1 13  1  0
  1 24  1  0
  1 27  2  0
  2 14  1  0
  2 25  1  0
  2 28  2  0
  3 15  1  0
  3 29  2  0
  3 34  1  0
  4 16  1  0
  4 30  2  0
  4 35  1  0
  5 26  1  0
  5 31  2  0
  5 36  1  0
  6  7  1  0
  6 12  1  0
  6 24  1  0
  7  8  1  0
  7 34  1  0
  8  9  1  0
  8 35  1  0
  9 20  1  0
  9 33  1  0
 10 11  1  0
 10 21  1  0
 10 32  1  0
 11 22  1  0
 11 32  1  0
 12 33  1  0
 12 37  1  0
 17 23  1  0
 18 23  1  0
 19 23  1  0
 20 25  1  0
 21 26  1  0
 22 37  1  0
 23 36  1  0
  6 38  1  0
  7 39  1  0
  8 40  1  0
  9 41  1  0
 10 42  1  0
 11 43  1  0
 12 44  1  0
 13 45  1  0
 13 46  1  0
 13 47  1  0
 14 48  1  0
 14 49  1  0
 14 50  1  0
 15 51  1  0
 15 52  1  0
 15 53  1  0
 16 54  1  0
 16 55  1  0
 16 56  1  0
 17 57  1  0
 17 58  1  0
 17 59  1  0
 18 60  1  0
 18 61  1  0
 18 62  1  0
 19 63  1  0
 19 64  1  0
 19 65  1  0
 20 66  1  0
 20 67  1  0
 21 68  1  0
 21 69  1  0
 22 70  1  0
 22 71  1  0
 24 72  1  0
 25 73  1  0
 26 74  1  0
M  END
> <Name>
BR010051

$$$$
BR010052
  SciTegic05062102053D

 74 75  0  0  1  0            999 V2000
    3.0137    2.3298   -1.3826 C   0  0
    1.0990   -1.9262    5.3666 C   0  0
   -0.3355   -1.2545   -2.0379 C   0  0
   -0.0112   -3.7440    0.1738 C   0  0
   -3.1150    1.6816    1.9570 C   0  0
    2.1367    0.4363   -0.0306 C   0  0  2  0  0  0
    0.9487   -0.5147   -0.1974 C   0  0  2  0  0  0
    1.1071   -1.7342    0.7162 C   0  0  1  0  0  0
    1.4253   -1.3138    2.1559 C   0  0  1  0  0  0
   -0.8544    2.9537    3.9745 C   0  0  1  0  0  0
    0.6233    3.0578    3.6848 C   0  0  2  0  0  0
    2.3684    0.7673    1.4470 C   0  0  2  0  0  0
    2.6006    3.5417   -2.1500 C   0  0
    1.6340   -1.4483    6.6756 C   0  0
   -0.2265   -1.7053   -3.4630 C   0  0
   -1.3582   -4.4006    0.1913 C   0  0
   -4.4078    3.0132   -0.2122 C   0  0
   -4.1370    0.8493   -1.4587 C   0  0
   -5.5327    0.9244    0.6280 C   0  0
    1.7588   -2.5112    3.0417 C   0  0
   -1.6038    1.6706    3.9362 C   0  0
    1.4849    1.8655    3.3275 C   0  0
   -4.3070    1.4938   -0.0847 C   0  0
    1.9613    1.6381   -0.8134 N   0  0
    2.0547   -2.0673    4.3624 N   0  0
   -1.9440    1.3038    2.5875 N   0  0
    4.2013    2.0367   -1.3095 O   0  0
   -0.0985   -2.1596    5.2522 O   0  0
   -1.3908   -1.1711   -1.4244 O   0  0
    1.0089   -4.2836   -0.2330 O   0  0
   -4.0029    2.3666    2.4539 O   0  0
    0.1156    3.0522    5.0260 O   0  0
    2.5571   -0.4377    2.1928 O   0  0
    0.9060   -0.9606   -1.5544 O   0  0
   -0.1089   -2.4769    0.6745 O   0  0
   -3.1429    1.1775    0.6871 O   0  0
    1.2894    1.5477    1.9581 O   0  0
    3.0326   -0.0532   -0.4338 H   0  0
    0.0000    0.0000    0.0000 H   0  0
    1.9025   -2.3757    0.3152 H   0  0
    0.5604   -0.8079    2.6039 H   0  0
   -1.4762    3.8147    3.7685 H   0  0
    0.9996    3.9892    3.2832 H   0  0
    3.2827    1.3640    1.5456 H   0  0
    2.5701    4.4468   -1.5223 H   0  0
    3.2984    3.7788   -2.9690 H   0  0
    1.6074    3.4839   -2.6234 H   0  0
    1.6255   -0.3495    6.7574 H   0  0
    1.0385   -1.8084    7.5299 H   0  0
    2.6706   -1.7474    6.8987 H   0  0
   -0.3063   -0.8445   -4.1314 H   0  0
   -1.0086   -2.4368   -3.6815 H   0  0
    0.7467   -2.1795   -3.6200 H   0  0
   -1.5045   -4.9217    1.1407 H   0  0
   -1.4427   -5.0963   -0.6473 H   0  0
   -2.1351   -3.6373    0.0893 H   0  0
   -4.5298    3.4795    0.7720 H   0  0
   -3.5190    3.4377   -0.6903 H   0  0
   -5.2871    3.2987   -0.8008 H   0  0
   -4.0643   -0.2408   -1.3720 H   0  0
   -3.2080    1.1838   -1.9345 H   0  0
   -4.9730    1.0892   -2.1237 H   0  0
   -5.4607   -0.1654    0.7196 H   0  0
   -5.6496    1.3484    1.6306 H   0  0
   -6.4453    1.1269    0.0558 H   0  0
    2.6230   -3.0174    2.6317 H   0  0
    0.9063   -3.1767    3.0704 H   0  0
   -2.5382    1.7500    4.5030 H   0  0
   -1.0073    0.8550    4.3595 H   0  0
    1.2092    0.9974    3.9336 H   0  0
    2.5426    2.0940    3.4888 H   0  0
    1.0192    1.9915   -0.9520 H   0  0
    3.0284   -1.8382    4.5875 H   0  0
   -1.2827    0.7317    2.0659 H   0  0
  1 13  1  0
  1 24  1  0
  1 27  2  0
  2 14  1  0
  2 25  1  0
  2 28  2  0
  3 15  1  0
  3 29  2  0
  3 34  1  0
  4 16  1  0
  4 30  2  0
  4 35  1  0
  5 26  1  0
  5 31  2  0
  5 36  1  0
  6  7  1  0
  6 12  1  0
  6 24  1  0
  7  8  1  0
  7 34  1  0
  8  9  1  0
  8 35  1  0
  9 20  1  0
  9 33  1  0
 10 11  1  0
 10 21  1  0
 10 32  1  0
 11 22  1  0
 11 32  1  0
 12 33  1  0
 12 37  1  0
 17 23  1  0
 18 23  1  0
 19 23  1  0
 20 25  1  0
 21 26  1  0
 22 37  1  0
 23 36  1  0
  6 38  1  0
  7 39  1  0
  8 40  1  0
  9 41  1  0
 10 42  1  0
 11 43  1  0
 12 44  1  0
 13 45  1  0
 13 46  1  0
 13 47  1  0
 14 48  1  0
 14 49  1  0
 14 50  1  0
 15 51  1  0
 15 52  1  0
 15 53  1  0
 16 54  1  0
 16 55  1  0
 16 56  1  0
 17 57  1  0
 17 58  1  0
 17 59  1  0
 18 60  1  0
 18 61  1  0
 18 62  1  0
 19 63  1  0
 19 64  1  0
 19 65  1  0
 20 66  1  0
 20 67  1  0
 21 68  1  0
 21 69  1  0
 22 70  1  0
 22 71  1  0
 24 72  1  0
 25 73  1  0
 26 74  1  0
M  END
> <Name>
BR010052

$$$$
BR010053
  SciTegic05062102053D

 74 75  0  0  1  0            999 V2000
    3.0137    2.3298   -1.3826 C   0  0
    1.0990   -1.9262    5.3666 C   0  0
   -0.3355   -1.2545   -2.0379 C   0  0
   -0.0112   -3.7440    0.1738 C   0  0
   -3.0938    0.1399    3.8518 C   0  0
    2.1367    0.4363   -0.0306 C   0  0  2  0  0  0
    0.9487   -0.5147   -0.1974 C   0  0  2  0  0  0
    1.1071   -1.7342    0.7162 C   0  0  1  0  0  0
    1.4253   -1.3138    2.1559 C   0  0  1  0  0  0
   -0.3133    1.6394    4.7567 C   0  0  2  0  0  0
    0.4189    2.6354    3.8985 C   0  0  2  0  0  0
    2.3684    0.7673    1.4470 C   0  0  2  0  0  0
    2.6006    3.5417   -2.1500 C   0  0
    1.6340   -1.4483    6.6756 C   0  0
   -0.2265   -1.7053   -3.4630 C   0  0
   -1.3582   -4.4006    0.1913 C   0  0
   -5.3414   -1.6042    3.6147 C   0  0
   -5.2682   -1.0629    1.1630 C   0  0
   -3.3194   -2.2181    2.2474 C   0  0
    1.7588   -2.5112    3.0417 C   0  0
   -1.7484    1.8273    5.0942 C   0  0
    1.6668    2.2417    3.1373 C   0  0
   -4.4464   -1.2049    2.4424 C   0  0
    1.9613    1.6381   -0.8134 N   0  0
    2.0547   -2.0673    4.3624 N   0  0
   -2.5989    1.4213    4.0073 N   0  0
    4.2013    2.0367   -1.3095 O   0  0
   -0.0985   -2.1596    5.2522 O   0  0
   -1.3908   -1.1711   -1.4244 O   0  0
    1.0089   -4.2836   -0.2330 O   0  0
   -2.8780   -0.8037    4.6052 O   0  0
    0.5643    2.6210    5.3253 O   0  0
    2.5571   -0.4377    2.1928 O   0  0
    0.9060   -0.9606   -1.5544 O   0  0
   -0.1089   -2.4769    0.6745 O   0  0
   -3.8664    0.0732    2.7266 O   0  0
    1.2894    1.5477    1.9581 O   0  0
    3.0326   -0.0532   -0.4338 H   0  0
    0.0000    0.0000    0.0000 H   0  0
    1.9025   -2.3757    0.3152 H   0  0
    0.5604   -0.8079    2.6039 H   0  0
    0.0017    0.6054    4.7644 H   0  0
   -0.1231    3.4546    3.4475 H   0  0
    3.2827    1.3640    1.5456 H   0  0
    2.5701    4.4468   -1.5223 H   0  0
    3.2984    3.7788   -2.9690 H   0  0
    1.6074    3.4839   -2.6234 H   0  0
    1.6255   -0.3495    6.7574 H   0  0
    1.0385   -1.8084    7.5299 H   0  0
    2.6706   -1.7474    6.8987 H   0  0
   -0.3063   -0.8445   -4.1314 H   0  0
   -1.0086   -2.4368   -3.6815 H   0  0
    0.7467   -2.1795   -3.6200 H   0  0
   -1.5045   -4.9217    1.1407 H   0  0
   -1.4427   -5.0963   -0.6473 H   0  0
   -2.1351   -3.6373    0.0893 H   0  0
   -4.7552   -1.7072    4.5350 H   0  0
   -6.1329   -0.8677    3.7872 H   0  0
   -5.8089   -2.5792    3.4354 H   0  0
   -4.6301   -0.7765    0.3192 H   0  0
   -6.0176   -0.2698    1.2665 H   0  0
   -5.7828   -1.9950    0.9078 H   0  0
   -2.6774   -1.9319    1.4065 H   0  0
   -2.6966   -2.3060    3.1435 H   0  0
   -3.7229   -3.2080    2.0054 H   0  0
    2.6230   -3.0174    2.6317 H   0  0
    0.9063   -3.1767    3.0704 H   0  0
   -1.9627    2.8809    5.3057 H   0  0
   -2.0268    1.2321    5.9709 H   0  0
    2.2967    1.5860    3.7458 H   0  0
    2.2408    3.1294    2.8554 H   0  0
    1.0192    1.9915   -0.9520 H   0  0
    3.0284   -1.8382    4.5875 H   0  0
   -2.8515    2.1197    3.3107 H   0  0
  1 13  1  0
  1 24  1  0
  1 27  2  0
  2 14  1  0
  2 25  1  0
  2 28  2  0
  3 15  1  0
  3 29  2  0
  3 34  1  0
  4 16  1  0
  4 30  2  0
  4 35  1  0
  5 26  1  0
  5 31  2  0
  5 36  1  0
  6  7  1  0
  6 12  1  0
  6 24  1  0
  7  8  1  0
  7 34  1  0
  8  9  1  0
  8 35  1  0
  9 20  1  0
  9 33  1  0
 10 11  1  0
 10 21  1  0
 10 32  1  0
 11 22  1  0
 11 32  1  0
 12 33  1  0
 12 37  1  0
 17 23  1  0
 18 23  1  0
 19 23  1  0
 20 25  1  0
 21 26  1  0
 22 37  1  0
 23 36  1  0
  6 38  1  0
  7 39  1  0
  8 40  1  0
  9 41  1  0
 10 42  1  0
 11 43  1  0
 12 44  1  0
 13 45  1  0
 13 46  1  0
 13 47  1  0
 14 48  1  0
 14 49  1  0
 14 50  1  0
 15 51  1  0
 15 52  1  0
 15 53  1  0
 16 54  1  0
 16 55  1  0
 16 56  1  0
 17 57  1  0
 17 58  1  0
 17 59  1  0
 18 60  1  0
 18 61  1  0
 18 62  1  0
 19 63  1  0
 19 64  1  0
 19 65  1  0
 20 66  1  0
 20 67  1  0
 21 68  1  0
 21 69  1  0
 22 70  1  0
 22 71  1  0
 24 72  1  0
 25 73  1  0
 26 74  1  0
M  END
> <Name>
BR010053

$$$$
BR010054
  SciTegic05062102053D

 67 67  0  0  1  0            999 V2000
    3.0137    2.3298   -1.3826 C   0  0
    2.6205   -1.6261    5.1996 C   0  0
   -2.0323   -0.7659    4.5773 C   0  0
    2.1367    0.4363   -0.0306 C   0  0  2  0  0  0
    0.9487   -0.5147   -0.1974 C   0  0  2  0  0  0
    1.1071   -1.7342    0.7162 C   0  0  1  0  0  0
    1.4253   -1.3138    2.1559 C   0  0  1  0  0  0
    2.3684    0.7673    1.4470 C   0  0  2  0  0  0
    2.6006    3.5417   -2.1500 C   0  0
    2.2302   -1.3267    6.6090 C   0  0
   -2.5881   -3.5627    4.7160 C   0  0
   -4.9926   -2.8834    4.9741 C   0  0
   -3.7460   -2.2977    2.8738 C   0  0
    1.7588   -2.5112    3.0417 C   0  0
   -0.5808    1.2068    5.0272 C   0  0
    1.6668    2.2417    3.1373 C   0  0
   -0.7666    2.2260    3.9027 C   0  0  2  0  0  0
    0.4829    3.0747    3.6174 C   0  0  2  0  0  0
   -3.6366   -2.5019    4.3841 C   0  0
    1.9613    1.6381   -0.8134 N   0  0
    1.6007   -2.1569    4.4123 N   0  0
   -1.7728    0.4234    5.2300 N   0  0
    4.2013    2.0367   -1.3095 O   0  0
    3.7656   -1.3972    4.8281 O   0  0
   -1.2985   -1.3038    3.7546 O   0  0
    2.5571   -0.4377    2.1928 O   0  0
    0.9060   -0.9606   -1.5544 O   0  0
   -0.1089   -2.4769    0.6745 O   0  0
   -1.8244    3.1086    4.2909 O   0  0
    0.1909    4.0468    2.6106 O   0  0
   -3.2382   -1.2640    4.9838 O   0  0
    1.2894    1.5477    1.9581 O   0  0
    3.0326   -0.0532   -0.4338 H   0  0
    0.0000    0.0000    0.0000 H   0  0
    1.9025   -2.3757    0.3152 H   0  0
    0.5604   -0.8079    2.6039 H   0  0
    3.2827    1.3640    1.5456 H   0  0
    2.5701    4.4468   -1.5223 H   0  0
    3.2984    3.7788   -2.9690 H   0  0
    1.6074    3.4839   -2.6234 H   0  0
    2.3966   -2.1829    7.2823 H   0  0
    2.8156   -0.4989    7.0406 H   0  0
    1.1758   -1.0431    6.7560 H   0  0
   -1.6134   -3.2924    4.2942 H   0  0
   -2.4750   -3.6937    5.7971 H   0  0
   -2.8577   -4.5298    4.2765 H   0  0
   -5.7479   -2.1251    4.7384 H   0  0
   -4.9410   -2.9383    6.0675 H   0  0
   -5.3409   -3.8494    4.5945 H   0  0
   -4.4981   -1.5368    2.6354 H   0  0
   -2.7906   -1.9874    2.4384 H   0  0
   -4.0713   -3.2197    2.3785 H   0  0
    2.7860   -2.8011    2.8627 H   0  0
    1.0867   -3.3246    2.8026 H   0  0
    0.2206    0.4971    4.7983 H   0  0
   -0.3648    1.6947    5.9813 H   0  0
    1.9611    1.4927    3.8787 H   0  0
    2.5237    2.8776    2.8951 H   0  0
   -1.0901    1.7206    2.9847 H   0  0
    0.7684    3.6390    4.5135 H   0  0
    1.0192    1.9915   -0.9520 H   0  0
    0.6824   -2.3010    4.8450 H   0  0
   -2.4639    0.7663    5.8929 H   0  0
    1.7464   -1.4134   -1.7188 H   0  0
   -0.8064   -1.8823    0.9910 H   0  0
   -2.6089    2.5541    4.4098 H   0  0
   -0.0227    3.5500    1.8071 H   0  0
  1  9  1  0
  1 20  1  0
  1 23  2  0
  2 10  1  0
  2 21  1  0
  2 24  2  0
  3 22  1  0
  3 25  2  0
  3 31  1  0
  4  5  1  0
  4  8  1  0
  4 20  1  0
  5  6  1  0
  5 27  1  0
  6  7  1  0
  6 28  1  0
  7 14  1  0
  7 26  1  0
  8 26  1  0
  8 32  1  0
 11 19  1  0
 12 19  1  0
 13 19  1  0
 14 21  1  0
 15 17  1  0
 15 22  1  0
 16 18  1  0
 16 32  1  0
 17 18  1  0
 17 29  1  0
 18 30  1  0
 19 31  1  0
  4 33  1  0
  5 34  1  0
  6 35  1  0
  7 36  1  0
  8 37  1  0
  9 38  1  0
  9 39  1  0
  9 40  1  0
 10 41  1  0
 10 42  1  0
 10 43  1  0
 11 44  1  0
 11 45  1  0
 11 46  1  0
 12 47  1  0
 12 48  1  0
 12 49  1  0
 13 50  1  0
 13 51  1  0
 13 52  1  0
 14 53  1  0
 14 54  1  0
 15 55  1  0
 15 56  1  0
 16 57  1  0
 16 58  1  0
 17 59  1  0
 18 60  1  0
 20 61  1  0
 21 62  1  0
 22 63  1  0
 27 64  1  0
 28 65  1  0
 29 66  1  0
 30 67  1  0
M  END
> <Name>
BR010054

$$$$
BR010055
  SciTegic05062102053D

 67 67  0  0  1  0            999 V2000
    3.0137    2.3298   -1.3826 C   0  0
    1.0990   -1.9262    5.3666 C   0  0
   -4.0495    1.8149    3.6533 C   0  0
    2.1367    0.4363   -0.0306 C   0  0  2  0  0  0
    0.9487   -0.5147   -0.1974 C   0  0  2  0  0  0
    1.1071   -1.7342    0.7162 C   0  0  1  0  0  0
    1.4253   -1.3138    2.1559 C   0  0  1  0  0  0
    2.3684    0.7673    1.4470 C   0  0  2  0  0  0
    2.6006    3.5417   -2.1500 C   0  0
    1.6340   -1.4483    6.6756 C   0  0
   -5.3841   -0.2737    2.2369 C   0  0
   -6.9670   -0.3318    4.1863 C   0  0
   -6.7767    1.7481    2.7913 C   0  0
    1.7588   -2.5112    3.0417 C   0  0
   -1.9890    3.0443    4.3194 C   0  0
    1.6668    2.2417    3.1373 C   0  0
   -0.7666    2.2260    3.9027 C   0  0  1  0  0  0
    0.4829    3.0747    3.6174 C   0  0  2  0  0  0
   -6.0284    0.5419    3.3569 C   0  0
    1.9613    1.6381   -0.8134 N   0  0
    2.0547   -2.0673    4.3624 N   0  0
   -3.1194    2.1965    4.6005 N   0  0
    4.2013    2.0367   -1.3095 O   0  0
   -0.0985   -2.1596    5.2522 O   0  0
   -4.0384    2.1396    2.4704 O   0  0
    2.5571   -0.4377    2.1928 O   0  0
    0.9060   -0.9606   -1.5544 O   0  0
   -0.1089   -2.4769    0.6745 O   0  0
   -0.4622    1.3284    4.9754 O   0  0
    0.1909    4.0468    2.6106 O   0  0
   -4.9953    1.0141    4.2290 O   0  0
    1.2894    1.5477    1.9581 O   0  0
    3.0326   -0.0532   -0.4338 H   0  0
    0.0000    0.0000    0.0000 H   0  0
    1.9025   -2.3757    0.3152 H   0  0
    0.5604   -0.8079    2.6039 H   0  0
    3.2827    1.3640    1.5456 H   0  0
    2.5701    4.4468   -1.5223 H   0  0
    3.2984    3.7788   -2.9690 H   0  0
    1.6074    3.4839   -2.6234 H   0  0
    1.6255   -0.3495    6.7574 H   0  0
    1.0385   -1.8084    7.5299 H   0  0
    2.6706   -1.7474    6.8987 H   0  0
   -4.7096    0.3498    1.6392 H   0  0
   -4.8152   -1.1220    2.6315 H   0  0
   -6.1435   -0.6577    1.5461 H   0  0
   -7.4315    0.2494    4.9911 H   0  0
   -6.4159   -1.1454    4.6716 H   0  0
   -7.7606   -0.7688    3.5718 H   0  0
   -7.2389    2.3333    3.5945 H   0  0
   -6.1106    2.4060    2.2237 H   0  0
   -7.5926    1.4272    2.1336 H   0  0
    2.6230   -3.0174    2.6317 H   0  0
    0.9063   -3.1767    3.0704 H   0  0
   -1.7973    3.6171    5.2323 H   0  0
   -2.3045    3.7286    3.5274 H   0  0
    1.9611    1.4927    3.8787 H   0  0
    2.5237    2.8776    2.8951 H   0  0
   -1.0048    1.6108    3.0266 H   0  0
    0.7684    3.6390    4.5135 H   0  0
    1.0192    1.9915   -0.9520 H   0  0
    3.0284   -1.8382    4.5875 H   0  0
   -3.2396    1.8589    5.5525 H   0  0
    1.7464   -1.4134   -1.7188 H   0  0
   -0.8064   -1.8823    0.9910 H   0  0
    0.3122    0.8215    4.6918 H   0  0
   -0.0227    3.5500    1.8071 H   0  0
  1  9  1  0
  1 20  1  0
  1 23  2  0
  2 10  1  0
  2 21  1  0
  2 24  2  0
  3 22  1  0
  3 25  2  0
  3 31  1  0
  4  5  1  0
  4  8  1  0
  4 20  1  0
  5  6  1  0
  5 27  1  0
  6  7  1  0
  6 28  1  0
  7 14  1  0
  7 26  1  0
  8 26  1  0
  8 32  1  0
 11 19  1  0
 12 19  1  0
 13 19  1  0
 14 21  1  0
 15 17  1  0
 15 22  1  0
 16 18  1  0
 16 32  1  0
 17 18  1  0
 17 29  1  0
 18 30  1  0
 19 31  1  0
  4 33  1  0
  5 34  1  0
  6 35  1  0
  7 36  1  0
  8 37  1  0
  9 38  1  0
  9 39  1  0
  9 40  1  0
 10 41  1  0
 10 42  1  0
 10 43  1  0
 11 44  1  0
 11 45  1  0
 11 46  1  0
 12 47  1  0
 12 48  1  0
 12 49  1  0
 13 50  1  0
 13 51  1  0
 13 52  1  0
 14 53  1  0
 14 54  1  0
 15 55  1  0
 15 56  1  0
 16 57  1  0
 16 58  1  0
 17 59  1  0
 18 60  1  0
 20 61  1  0
 21 62  1  0
 22 63  1  0
 27 64  1  0
 28 65  1  0
 29 66  1  0
 30 67  1  0
M  END
> <Name>
BR010055

$$$$
BR010056
  SciTegic05062102053D

 67 67  0  0  1  0            999 V2000
    3.0137    2.3298   -1.3826 C   0  0
    2.6205   -1.6261    5.1996 C   0  0
   -2.0199   -0.6433    4.9995 C   0  0
    2.1367    0.4363   -0.0306 C   0  0  2  0  0  0
    0.9487   -0.5147   -0.1974 C   0  0  2  0  0  0
    1.1071   -1.7342    0.7162 C   0  0  1  0  0  0
    1.4253   -1.3138    2.1559 C   0  0  1  0  0  0
    2.3684    0.7673    1.4470 C   0  0  2  0  0  0
    2.6006    3.5417   -2.1500 C   0  0
    2.2302   -1.3267    6.6090 C   0  0
   -2.5014   -3.3858    5.6296 C   0  0
   -4.9384   -2.8123    5.4267 C   0  0
   -3.4285   -2.5792    3.4331 C   0  0
    1.7588   -2.5112    3.0417 C   0  0
   -0.7087    1.4616    5.2255 C   0  0
    1.6668    2.2417    3.1373 C   0  0
   -0.7669    2.2265    3.9029 C   0  0  2  0  0  0
    0.4829    3.0747    3.6174 C   0  0  1  0  0  0
   -3.5258   -2.4750    4.9545 C   0  0
    1.9613    1.6381   -0.8134 N   0  0
    1.6007   -2.1569    4.4123 N   0  0
   -1.8921    0.6645    5.4252 N   0  0
    4.2013    2.0367   -1.3095 O   0  0
    3.7656   -1.3972    4.8281 O   0  0
   -1.1613   -1.2884    4.4068 O   0  0
    2.5571   -0.4377    2.1928 O   0  0
    0.9060   -0.9606   -1.5544 O   0  0
   -0.1089   -2.4769    0.6745 O   0  0
   -1.8960    3.1043    3.9614 O   0  0
    0.8816    3.7645    4.8045 O   0  0
   -3.2546   -1.1219    5.3371 O   0  0
    1.2894    1.5477    1.9581 O   0  0
    3.0326   -0.0532   -0.4338 H   0  0
    0.0000    0.0000    0.0000 H   0  0
    1.9025   -2.3757    0.3152 H   0  0
    0.5604   -0.8079    2.6039 H   0  0
    3.2827    1.3640    1.5456 H   0  0
    2.5701    4.4468   -1.5223 H   0  0
    3.2984    3.7788   -2.9690 H   0  0
    1.6074    3.4839   -2.6234 H   0  0
    2.3966   -2.1829    7.2823 H   0  0
    2.8156   -0.4989    7.0406 H   0  0
    1.1758   -1.0431    6.7560 H   0  0
   -1.4861   -3.1468    5.2933 H   0  0
   -2.5370   -3.2943    6.7201 H   0  0
   -2.6760   -4.4348    5.3644 H   0  0
   -5.6767   -2.1612    4.9448 H   0  0
   -5.0391   -2.6476    6.5055 H   0  0
   -5.1994   -3.8530    5.2090 H   0  0
   -4.1633   -1.9260    2.9487 H   0  0
   -2.4317   -2.3049    3.0730 H   0  0
   -3.6519   -3.5983    3.0973 H   0  0
    2.7860   -2.8011    2.8627 H   0  0
    1.0867   -3.3246    2.8026 H   0  0
    0.1388    0.7694    5.2527 H   0  0
   -0.6443    2.1398    6.0804 H   0  0
    1.9611    1.4927    3.8787 H   0  0
    2.5237    2.8776    2.8951 H   0  0
   -0.9423    1.5320    3.0724 H   0  0
    0.2524    3.8494    2.8762 H   0  0
    1.0192    1.9915   -0.9520 H   0  0
    0.6824   -2.3010    4.8450 H   0  0
   -2.6799    1.0898    5.9081 H   0  0
    1.7464   -1.4134   -1.7188 H   0  0
   -0.8064   -1.8823    0.9910 H   0  0
   -2.6715    2.5386    4.0866 H   0  0
    1.6339    4.3213    4.5555 H   0  0
  1  9  1  0
  1 20  1  0
  1 23  2  0
  2 10  1  0
  2 21  1  0
  2 24  2  0
  3 22  1  0
  3 25  2  0
  3 31  1  0
  4  5  1  0
  4  8  1  0
  4 20  1  0
  5  6  1  0
  5 27  1  0
  6  7  1  0
  6 28  1  0
  7 14  1  0
  7 26  1  0
  8 26  1  0
  8 32  1  0
 11 19  1  0
 12 19  1  0
 13 19  1  0
 14 21  1  0
 15 17  1  0
 15 22  1  0
 16 18  1  0
 16 32  1  0
 17 18  1  0
 17 29  1  0
 18 30  1  0
 19 31  1  0
  4 33  1  0
  5 34  1  0
  6 35  1  0
  7 36  1  0
  8 37  1  0
  9 38  1  0
  9 39  1  0
  9 40  1  0
 10 41  1  0
 10 42  1  0
 10 43  1  0
 11 44  1  0
 11 45  1  0
 11 46  1  0
 12 47  1  0
 12 48  1  0
 12 49  1  0
 13 50  1  0
 13 51  1  0
 13 52  1  0
 14 53  1  0
 14 54  1  0
 15 55  1  0
 15 56  1  0
 16 57  1  0
 16 58  1  0
 17 59  1  0
 18 60  1  0
 20 61  1  0
 21 62  1  0
 22 63  1  0
 27 64  1  0
 28 65  1  0
 29 66  1  0
 30 67  1  0
M  END
> <Name>
BR010056

$$$$
BR010057
  SciTegic05062102053D

 67 67  0  0  1  0            999 V2000
    3.0137    2.3298   -1.3826 C   0  0
    1.0990   -1.9262    5.3666 C   0  0
   -3.7019    1.4465    5.2392 C   0  0
    2.1367    0.4363   -0.0306 C   0  0  2  0  0  0
    0.9487   -0.5147   -0.1974 C   0  0  2  0  0  0
    1.1071   -1.7342    0.7162 C   0  0  1  0  0  0
    1.4253   -1.3138    2.1559 C   0  0  1  0  0  0
    2.3684    0.7673    1.4470 C   0  0  2  0  0  0
    2.6006    3.5417   -2.1500 C   0  0
    1.6340   -1.4483    6.6756 C   0  0
   -5.8324    0.7263    6.9977 C   0  0
   -6.8313   -0.4400    5.0100 C   0  0
   -4.6071   -1.1836    5.9089 C   0  0
    1.7588   -2.5112    3.0417 C   0  0
   -1.9470    3.0283    4.4525 C   0  0
    1.6668    2.2417    3.1373 C   0  0
   -0.7669    2.2265    3.9029 C   0  0  1  0  0  0
    0.4829    3.0747    3.6174 C   0  0  1  0  0  0
   -5.5353    0.0087    5.6818 C   0  0
    1.9613    1.6381   -0.8134 N   0  0
    2.0547   -2.0673    4.3624 N   0  0
   -3.1881    2.3138    4.2949 N   0  0
    4.2013    2.0367   -1.3095 O   0  0
   -0.0985   -2.1596    5.2522 O   0  0
   -3.1819    1.1738    6.3162 O   0  0
    2.5571   -0.4377    2.1928 O   0  0
    0.9060   -0.9606   -1.5544 O   0  0
   -0.1089   -2.4769    0.6745 O   0  0
   -0.4235    1.2390    4.8806 O   0  0
    0.8816    3.7645    4.8045 O   0  0
   -4.8870    0.9293    4.7970 O   0  0
    1.2894    1.5477    1.9581 O   0  0
    3.0326   -0.0532   -0.4338 H   0  0
    0.0000    0.0000    0.0000 H   0  0
    1.9025   -2.3757    0.3152 H   0  0
    0.5604   -0.8079    2.6039 H   0  0
    3.2827    1.3640    1.5456 H   0  0
    2.5701    4.4468   -1.5223 H   0  0
    3.2984    3.7788   -2.9690 H   0  0
    1.6074    3.4839   -2.6234 H   0  0
    1.6255   -0.3495    6.7574 H   0  0
    1.0385   -1.8084    7.5299 H   0  0
    2.6706   -1.7474    6.8987 H   0  0
   -4.9047    1.0500    7.4831 H   0  0
   -6.4688    1.6038    6.8439 H   0  0
   -6.3332    0.0551    7.7048 H   0  0
   -6.6229   -0.9554    4.0654 H   0  0
   -7.4597    0.4222    4.7591 H   0  0
   -7.4074   -1.1135    5.6527 H   0  0
   -4.3939   -1.6985    4.9651 H   0  0
   -3.6568   -0.8753    6.3567 H   0  0
   -5.0775   -1.9242    6.5657 H   0  0
    2.6230   -3.0174    2.6317 H   0  0
    0.9063   -3.1767    3.0704 H   0  0
   -1.8363    3.2237    5.5238 H   0  0
   -2.0679    3.9788    3.9262 H   0  0
    1.9611    1.4927    3.8787 H   0  0
    2.5237    2.8776    2.8951 H   0  0
   -1.0657    1.6893    2.9946 H   0  0
    0.2524    3.8494    2.8762 H   0  0
    1.0192    1.9915   -0.9520 H   0  0
    3.0284   -1.8382    4.5875 H   0  0
   -3.7170    2.4563    3.4378 H   0  0
    1.7464   -1.4134   -1.7188 H   0  0
   -0.8064   -1.8823    0.9910 H   0  0
   -0.1880    1.7250    5.6840 H   0  0
    1.6339    4.3213    4.5555 H   0  0
  1  9  1  0
  1 20  1  0
  1 23  2  0
  2 10  1  0
  2 21  1  0
  2 24  2  0
  3 22  1  0
  3 25  2  0
  3 31  1  0
  4  5  1  0
  4  8  1  0
  4 20  1  0
  5  6  1  0
  5 27  1  0
  6  7  1  0
  6 28  1  0
  7 14  1  0
  7 26  1  0
  8 26  1  0
  8 32  1  0
 11 19  1  0
 12 19  1  0
 13 19  1  0
 14 21  1  0
 15 17  1  0
 15 22  1  0
 16 18  1  0
 16 32  1  0
 17 18  1  0
 17 29  1  0
 18 30  1  0
 19 31  1  0
  4 33  1  0
  5 34  1  0
  6 35  1  0
  7 36  1  0
  8 37  1  0
  9 38  1  0
  9 39  1  0
  9 40  1  0
 10 41  1  0
 10 42  1  0
 10 43  1  0
 11 44  1  0
 11 45  1  0
 11 46  1  0
 12 47  1  0
 12 48  1  0
 12 49  1  0
 13 50  1  0
 13 51  1  0
 13 52  1  0
 14 53  1  0
 14 54  1  0
 15 55  1  0
 15 56  1  0
 16 57  1  0
 16 58  1  0
 17 59  1  0
 18 60  1  0
 20 61  1  0
 21 62  1  0
 22 63  1  0
 27 64  1  0
 28 65  1  0
 29 66  1  0
 30 67  1  0
M  END
> <Name>
BR010057

$$$$
BR010058
  SciTegic05062102053D

 53 53  0  0  1  0            999 V2000
    3.0137    2.3298   -1.3826 C   0  0
    2.6205   -1.6261    5.1996 C   0  0
    2.1367    0.4363   -0.0306 C   0  0  2  0  0  0
    0.9487   -0.5147   -0.1974 C   0  0  2  0  0  0
    1.1071   -1.7342    0.7162 C   0  0  1  0  0  0
    1.4253   -1.3138    2.1559 C   0  0  1  0  0  0
    2.3684    0.7673    1.4470 C   0  0  2  0  0  0
    2.6006    3.5417   -2.1500 C   0  0
    2.2302   -1.3267    6.6090 C   0  0
    1.7588   -2.5112    3.0417 C   0  0
   -0.5180    1.2203    5.0304 C   0  0
    1.6668    2.2417    3.1373 C   0  0
   -0.7688    2.2215    3.9051 C   0  0  2  0  0  0
    0.4795    3.0723    3.6191 C   0  0  2  0  0  0
    1.9613    1.6381   -0.8134 N   0  0
    1.6007   -2.1569    4.4123 N   0  0
   -1.7732    0.4739    5.3080 N   0  3
    4.2013    2.0367   -1.3095 O   0  0
    3.7656   -1.3972    4.8281 O   0  0
    2.5571   -0.4377    2.1928 O   0  0
    0.9060   -0.9606   -1.5544 O   0  0
   -0.1089   -2.4769    0.6745 O   0  0
   -1.8552    3.0608    4.2974 O   0  0
    0.1669    4.0417    2.6164 O   0  0
    1.2894    1.5477    1.9581 O   0  0
    3.0326   -0.0532   -0.4338 H   0  0
    0.0000    0.0000    0.0000 H   0  0
    1.9025   -2.3757    0.3152 H   0  0
    0.5604   -0.8079    2.6039 H   0  0
    3.2827    1.3640    1.5456 H   0  0
    2.5701    4.4468   -1.5223 H   0  0
    3.2984    3.7788   -2.9690 H   0  0
    1.6074    3.4839   -2.6234 H   0  0
    2.3966   -2.1829    7.2823 H   0  0
    2.8156   -0.4989    7.0406 H   0  0
    1.1758   -1.0431    6.7560 H   0  0
    2.7860   -2.8011    2.8627 H   0  0
    1.0867   -3.3246    2.8026 H   0  0
   -0.2445    1.7081    5.9708 H   0  0
    0.2331    0.4730    4.7589 H   0  0
    1.9615    1.4937    3.8800 H   0  0
    2.5220    2.8804    2.8960 H   0  0
   -1.0665    1.6913    2.9919 H   0  0
    0.7581    3.6284    4.5224 H   0  0
    1.0192    1.9915   -0.9520 H   0  0
    0.6824   -2.3010    4.8450 H   0  0
   -2.5217    1.1133    5.5918 H   0  0
   -1.6325   -0.2061    6.0615 H   0  0
   -2.0866   -0.0337    4.4750 H   0  0
    1.7464   -1.4134   -1.7188 H   0  0
   -0.8064   -1.8823    0.9910 H   0  0
   -1.9949    3.6854    3.5699 H   0  0
    0.9602    4.5869    2.5083 H   0  0
  1  8  1  0
  1 15  1  0
  1 18  2  0
  2  9  1  0
  2 16  1  0
  2 19  2  0
  3  4  1  0
  3  7  1  0
  3 15  1  0
  4  5  1  0
  4 21  1  0
  5  6  1  0
  5 22  1  0
  6 10  1  0
  6 20  1  0
  7 20  1  0
  7 25  1  0
 10 16  1  0
 11 13  1  0
 11 17  1  0
 12 14  1  0
 12 25  1  0
 13 14  1  0
 13 23  1  0
 14 24  1  0
  3 26  1  0
  4 27  1  0
  5 28  1  0
  6 29  1  0
  7 30  1  0
  8 31  1  0
  8 32  1  0
  8 33  1  0
  9 34  1  0
  9 35  1  0
  9 36  1  0
 10 37  1  0
 10 38  1  0
 11 39  1  0
 11 40  1  0
 12 41  1  0
 12 42  1  0
 13 43  1  0
 14 44  1  0
 15 45  1  0
 16 46  1  0
 17 47  1  0
 17 48  1  0
 17 49  1  0
 21 50  1  0
 22 51  1  0
 23 52  1  0
 24 53  1  0
M  CHG  1  17   1
M  END
> <Name>
BR010058

$$$$
BR010059
  SciTegic05062102053D

 53 53  0  0  1  0            999 V2000
    3.0137    2.3298   -1.3826 C   0  0
    1.0990   -1.9262    5.3666 C   0  0
    2.1367    0.4363   -0.0306 C   0  0  2  0  0  0
    0.9487   -0.5147   -0.1974 C   0  0  2  0  0  0
    1.1071   -1.7342    0.7162 C   0  0  1  0  0  0
    1.4253   -1.3138    2.1559 C   0  0  1  0  0  0
    2.3684    0.7673    1.4470 C   0  0  2  0  0  0
    2.6006    3.5417   -2.1500 C   0  0
    1.6340   -1.4483    6.6756 C   0  0
    1.7588   -2.5112    3.0417 C   0  0
   -1.9541    3.0888    4.3227 C   0  0
    1.6668    2.2417    3.1373 C   0  0
   -0.7688    2.2215    3.9051 C   0  0  1  0  0  0
    0.4795    3.0723    3.6191 C   0  0  2  0  0  0
    1.9613    1.6381   -0.8134 N   0  0
    2.0547   -2.0673    4.3624 N   0  0
   -3.2166    2.3509    4.0557 N   0  3
    4.2013    2.0367   -1.3095 O   0  0
   -0.0985   -2.1596    5.2522 O   0  0
    2.5571   -0.4377    2.1928 O   0  0
    0.9060   -0.9606   -1.5544 O   0  0
   -0.1089   -2.4769    0.6745 O   0  0
   -0.5025    1.3015    4.9640 O   0  0
    0.1669    4.0417    2.6164 O   0  0
    1.2894    1.5477    1.9581 O   0  0
    3.0326   -0.0532   -0.4338 H   0  0
    0.0000    0.0000    0.0000 H   0  0
    1.9025   -2.3757    0.3152 H   0  0
    0.5604   -0.8079    2.6039 H   0  0
    3.2827    1.3640    1.5456 H   0  0
    2.5701    4.4468   -1.5223 H   0  0
    3.2984    3.7788   -2.9690 H   0  0
    1.6074    3.4839   -2.6234 H   0  0
    1.6255   -0.3495    6.7574 H   0  0
    1.0385   -1.8084    7.5299 H   0  0
    2.6707   -1.7474    6.8987 H   0  0
    2.6230   -3.0174    2.6317 H   0  0
    0.9063   -3.1767    3.0704 H   0  0
   -2.0193    4.0148    3.7436 H   0  0
   -1.9462    3.3116    5.3935 H   0  0
    1.9615    1.4937    3.8800 H   0  0
    2.5220    2.8804    2.8960 H   0  0
   -1.0272    1.6398    3.0116 H   0  0
    0.7581    3.6284    4.5224 H   0  0
    1.0192    1.9915   -0.9520 H   0  0
    3.0284   -1.8382    4.5875 H   0  0
   -3.3030    2.1259    3.0600 H   0  0
   -4.0298    2.9120    4.3273 H   0  0
   -3.2440    1.4735    4.5842 H   0  0
    1.7464   -1.4134   -1.7188 H   0  0
   -0.8064   -1.8823    0.9910 H   0  0
   -1.3082    0.7755    5.0785 H   0  0
    0.9602    4.5869    2.5083 H   0  0
  1  8  1  0
  1 15  1  0
  1 18  2  0
  2  9  1  0
  2 16  1  0
  2 19  2  0
  3  4  1  0
  3  7  1  0
  3 15  1  0
  4  5  1  0
  4 21  1  0
  5  6  1  0
  5 22  1  0
  6 10  1  0
  6 20  1  0
  7 20  1  0
  7 25  1  0
 10 16  1  0
 11 13  1  0
 11 17  1  0
 12 14  1  0
 12 25  1  0
 13 14  1  0
 13 23  1  0
 14 24  1  0
  3 26  1  0
  4 27  1  0
  5 28  1  0
  6 29  1  0
  7 30  1  0
  8 31  1  0
  8 32  1  0
  8 33  1  0
  9 34  1  0
  9 35  1  0
  9 36  1  0
 10 37  1  0
 10 38  1  0
 11 39  1  0
 11 40  1  0
 12 41  1  0
 12 42  1  0
 13 43  1  0
 14 44  1  0
 15 45  1  0
 16 46  1  0
 17 47  1  0
 17 48  1  0
 17 49  1  0
 21 50  1  0
 22 51  1  0
 23 52  1  0
 24 53  1  0
M  CHG  1  17   1
M  END
> <Name>
BR010059

$$$$
BR010060
  SciTegic05062102053D

 53 53  0  0  1  0            999 V2000
    3.0137    2.3298   -1.3826 C   0  0
    1.0990   -1.9262    5.3666 C   0  0
    2.1367    0.4363   -0.0306 C   0  0  2  0  0  0
    0.9487   -0.5147   -0.1974 C   0  0  2  0  0  0
    1.1071   -1.7342    0.7162 C   0  0  1  0  0  0
    1.4253   -1.3138    2.1559 C   0  0  1  0  0  0
    2.3684    0.7673    1.4470 C   0  0  2  0  0  0
    2.6006    3.5417   -2.1500 C   0  0
    1.6340   -1.4483    6.6756 C   0  0
    1.7588   -2.5112    3.0417 C   0  0
    1.0670    2.8841    6.0760 C   0  0
    1.6668    2.2417    3.1373 C   0  0
    0.7725    3.8375    4.9201 C   0  0  2  0  0  0
    0.4795    3.0723    3.6191 C   0  0  1  0  0  0
    1.9613    1.6381   -0.8134 N   0  0
    2.0547   -2.0673    4.3624 N   0  0
    0.9285    3.6182    7.3611 N   0  3
    4.2013    2.0367   -1.3095 O   0  0
   -0.0985   -2.1596    5.2522 O   0  0
    2.5571   -0.4377    2.1928 O   0  0
    0.9060   -0.9606   -1.5544 O   0  0
   -0.1089   -2.4769    0.6745 O   0  0
    1.9101    4.6827    4.7466 O   0  0
    0.1343    4.0079    2.5952 O   0  0
    1.2894    1.5477    1.9581 O   0  0
    3.0326   -0.0532   -0.4338 H   0  0
    0.0000    0.0000    0.0000 H   0  0
    1.9025   -2.3757    0.3152 H   0  0
    0.5604   -0.8079    2.6039 H   0  0
    3.2827    1.3640    1.5456 H   0  0
    2.5701    4.4468   -1.5223 H   0  0
    3.2984    3.7788   -2.9690 H   0  0
    1.6074    3.4839   -2.6234 H   0  0
    1.6255   -0.3495    6.7574 H   0  0
    1.0385   -1.8084    7.5299 H   0  0
    2.6706   -1.7474    6.8987 H   0  0
    2.6230   -3.0174    2.6317 H   0  0
    0.9063   -3.1767    3.0704 H   0  0
    2.0936    2.5062    6.0552 H   0  0
    0.3580    2.0523    6.1165 H   0  0
    1.9615    1.4937    3.8800 H   0  0
    2.5220    2.8804    2.8960 H   0  0
   -0.0847    4.4749    5.1699 H   0  0
   -0.3927    2.4235    3.7639 H   0  0
    1.0192    1.9915   -0.9520 H   0  0
    3.0284   -1.8382    4.5875 H   0  0
    1.5833    4.4050    7.4033 H   0  0
    1.1217    3.0001    8.1553 H   0  0
   -0.0211    3.9878    7.4686 H   0  0
    1.7464   -1.4134   -1.7188 H   0  0
   -0.8064   -1.8823    0.9910 H   0  0
    2.0272    5.1588    5.5824 H   0  0
   -0.0942    3.4837    1.8134 H   0  0
  1  8  1  0
  1 15  1  0
  1 18  2  0
  2  9  1  0
  2 16  1  0
  2 19  2  0
  3  4  1  0
  3  7  1  0
  3 15  1  0
  4  5  1  0
  4 21  1  0
  5  6  1  0
  5 22  1  0
  6 10  1  0
  6 20  1  0
  7 20  1  0
  7 25  1  0
 10 16  1  0
 11 13  1  0
 11 17  1  0
 12 14  1  0
 12 25  1  0
 13 14  1  0
 13 23  1  0
 14 24  1  0
  3 26  1  0
  4 27  1  0
  5 28  1  0
  6 29  1  0
  7 30  1  0
  8 31  1  0
  8 32  1  0
  8 33  1  0
  9 34  1  0
  9 35  1  0
  9 36  1  0
 10 37  1  0
 10 38  1  0
 11 39  1  0
 11 40  1  0
 12 41  1  0
 12 42  1  0
 13 43  1  0
 14 44  1  0
 15 45  1  0
 16 46  1  0
 17 47  1  0
 17 48  1  0
 17 49  1  0
 21 50  1  0
 22 51  1  0
 23 52  1  0
 24 53  1  0
M  CHG  1  17   1
M  END
> <Name>
BR010060

$$$$
BR010061
  SciTegic05062102053D

 53 53  0  0  1  0            999 V2000
    3.0137    2.3298   -1.3826 C   0  0
    1.0990   -1.9262    5.3666 C   0  0
    2.1367    0.4363   -0.0306 C   0  0  2  0  0  0
    0.9487   -0.5147   -0.1974 C   0  0  2  0  0  0
    1.1071   -1.7342    0.7162 C   0  0  1  0  0  0
    1.4253   -1.3138    2.1559 C   0  0  1  0  0  0
    2.3684    0.7673    1.4470 C   0  0  2  0  0  0
    2.6006    3.5417   -2.1500 C   0  0
    1.6340   -1.4483    6.6756 C   0  0
    1.7588   -2.5112    3.0417 C   0  0
   -1.9149    3.0747    4.4465 C   0  0
    1.6668    2.2417    3.1373 C   0  0
   -0.7693    2.2224    3.9053 C   0  0  1  0  0  0
    0.4795    3.0723    3.6191 C   0  0  1  0  0  0
    1.9613    1.6381   -0.8134 N   0  0
    2.0547   -2.0673    4.3624 N   0  0
   -3.2034    2.3789    4.1911 N   0  3
    4.2013    2.0367   -1.3095 O   0  0
   -0.0985   -2.1596    5.2522 O   0  0
    2.5571   -0.4377    2.1928 O   0  0
    0.9060   -0.9606   -1.5544 O   0  0
   -0.1089   -2.4769    0.6745 O   0  0
   -0.4683    1.2217    4.8783 O   0  0
    0.8604    3.7590    4.8134 O   0  0
    1.2894    1.5477    1.9581 O   0  0
    3.0326   -0.0532   -0.4338 H   0  0
    0.0000    0.0000    0.0000 H   0  0
    1.9025   -2.3757    0.3152 H   0  0
    0.5604   -0.8079    2.6039 H   0  0
    3.2827    1.3640    1.5456 H   0  0
    2.5701    4.4468   -1.5223 H   0  0
    3.2984    3.7788   -2.9690 H   0  0
    1.6074    3.4839   -2.6234 H   0  0
    1.6255   -0.3495    6.7574 H   0  0
    1.0385   -1.8084    7.5299 H   0  0
    2.6707   -1.7474    6.8987 H   0  0
    2.6230   -3.0174    2.6317 H   0  0
    0.9063   -3.1767    3.0704 H   0  0
   -1.9910    4.0423    3.9414 H   0  0
   -1.8489    3.2166    5.5290 H   0  0
    1.9615    1.4937    3.8800 H   0  0
    2.5220    2.8804    2.8960 H   0  0
   -1.0836    1.7132    2.9858 H   0  0
    0.2375    3.8403    2.8745 H   0  0
    1.0192    1.9915   -0.9520 H   0  0
    3.0284   -1.8382    4.5875 H   0  0
   -3.3442    2.2304    3.1872 H   0  0
   -3.9909    2.9309    4.5449 H   0  0
   -3.2215    1.4649    4.6539 H   0  0
    1.7464   -1.4134   -1.7188 H   0  0
   -0.8064   -1.8823    0.9910 H   0  0
   -1.2774    0.7014    4.9950 H   0  0
    1.6127    4.3209    4.5761 H   0  0
  1  8  1  0
  1 15  1  0
  1 18  2  0
  2  9  1  0
  2 16  1  0
  2 19  2  0
  3  4  1  0
  3  7  1  0
  3 15  1  0
  4  5  1  0
  4 21  1  0
  5  6  1  0
  5 22  1  0
  6 10  1  0
  6 20  1  0
  7 20  1  0
  7 25  1  0
 10 16  1  0
 11 13  1  0
 11 17  1  0
 12 14  1  0
 12 25  1  0
 13 14  1  0
 13 23  1  0
 14 24  1  0
  3 26  1  0
  4 27  1  0
  5 28  1  0
  6 29  1  0
  7 30  1  0
  8 31  1  0
  8 32  1  0
  8 33  1  0
  9 34  1  0
  9 35  1  0
  9 36  1  0
 10 37  1  0
 10 38  1  0
 11 39  1  0
 11 40  1  0
 12 41  1  0
 12 42  1  0
 13 43  1  0
 14 44  1  0
 15 45  1  0
 16 46  1  0
 17 47  1  0
 17 48  1  0
 17 49  1  0
 21 50  1  0
 22 51  1  0
 23 52  1  0
 24 53  1  0
M  CHG  1  17   1
M  END
> <Name>
BR010061

$$$$
BR010062
  SciTegic05062102053D

102103  0  0  1  0            999 V2000
   -6.0304   -0.4110   -3.4799 C   0  0
    2.4686    5.4325    3.6796 C   0  0
   -4.3770    5.1967    2.2778 C   0  0
   -1.0264    3.5796   -3.7271 C   0  0
   -6.5988    4.2944   -4.9045 C   0  0
   -0.2066    8.1091    2.5905 C   0  0
   -7.3320    6.3348   -2.3563 C   0  0
   -0.8644    8.5466   -1.1677 C   0  0
   -6.0642    1.8047   -2.3521 C   0  0  2  0  0  0
    1.4101    5.6649    1.4418 C   0  0  2  0  0  0
   -6.0302    3.2470   -2.8640 C   0  0  2  0  0  0
    0.2577    6.5183    0.9060 C   0  0  2  0  0  0
   -6.4699    4.2164   -1.7623 C   0  0  1  0  0  0
    0.2859    6.5550   -0.6253 C   0  0  1  0  0  0
   -5.7102    3.9564   -0.4561 C   0  0  1  0  0  0
    0.3978    5.1437   -1.2140 C   0  0  1  0  0  0
   -5.2910    1.6736   -1.0361 C   0  0  2  0  0  0
    1.4310    4.2895    0.7673 C   0  0  2  0  0  0
   -5.3718   -1.1847   -4.5734 C   0  0
    2.1677    5.3157    5.1370 C   0  0
   -3.7741    4.7310    3.5615 C   0  0
   -1.1652    2.1980   -4.2751 C   0  0
   -7.6297    4.3049   -5.9922 C   0  0
    0.0342    9.5357    2.9817 C   0  0
   -6.9263    7.6933   -2.8420 C   0  0
   -2.1851    9.0672   -1.6480 C   0  0
   -6.2550    4.7918    0.6993 C   0  0
    0.6032    5.1687   -2.7262 C   0  0
   -1.7535    1.9959   -0.1958 C   0  0
   -0.8600    1.4410    0.9079 C   0  0
   -3.1221    1.3299   -0.1993 C   0  0
    0.4933    2.1370    0.9386 C   0  0
   -5.5634    0.8828   -3.3456 N   0  0
    1.3466    5.5399    2.8799 N   0  0
   -5.5234    4.5073    1.8879 N   0  0
    0.2533    3.9047   -3.2821 N   0  0
   -6.9022   -0.9437   -2.8033 O   0  0
    3.6341    5.4278    3.3010 O   0  0
   -3.8545    6.1203    1.6649 O   0  0
   -2.0024    4.3201   -3.7011 O   0  0
   -5.6145    5.0211   -4.8863 O   0  0
   -0.8584    7.3166    3.2570 O   0  0
   -8.4877    6.0076   -2.1228 O   0  0
    0.0977    9.2559   -0.9065 O   0  0
   -5.8196    2.5827   -0.0676 O   0  0
    1.5129    4.4436   -0.6516 O   0  0
   -6.9338    3.3636   -3.9650 O   0  0
    0.4069    7.8511    1.3995 O   0  0
   -6.2266    5.5441   -2.2207 O   0  0
   -0.9119    7.1848   -1.0731 O   0  0
   -3.8965    1.8783   -1.2548 O   0  0
    0.2905    3.5263    1.1562 O   0  0
   -7.1109    1.5206   -2.1835 H   0  0
    2.3540    6.1833    1.2296 H   0  0
   -5.0332    3.5095   -3.2396 H   0  0
   -0.7095    6.1492    1.2696 H   0  0
   -7.5516    4.1105   -1.6089 H   0  0
    1.1300    7.1777   -0.9487 H   0  0
   -4.6504    4.2164   -0.5748 H   0  0
   -0.5218    4.5769   -1.0195 H   0  0
   -5.4176    0.6590   -0.6410 H   0  0
    2.3207    3.7389    1.0930 H   0  0
   -4.4776   -1.7266   -4.2256 H   0  0
   -6.0327   -1.9567   -4.9992 H   0  0
   -5.0319   -0.5875   -5.4346 H   0  0
    2.0488    4.2687    5.4592 H   0  0
    2.9740    5.7244    5.7669 H   0  0
    1.2512    5.8276    5.4715 H   0  0
   -3.0291    3.9332    3.4112 H   0  0
   -3.2369    5.5350    4.0898 H   0  0
   -4.4870    4.3268    4.2978 H   0  0
   -1.4397    1.4640   -3.5005 H   0  0
   -1.9569    2.1259   -5.0381 H   0  0
   -0.2621    1.7886   -4.7553 H   0  0
   -7.3500    3.5958   -6.7752 H   0  0
   -7.7263    5.3135   -6.4020 H   0  0
   -8.5965    4.0038   -5.5783 H   0  0
    0.9468    9.6076    3.5784 H   0  0
   -0.8236    9.9166    3.5416 H   0  0
    0.1583   10.1429    2.0803 H   0  0
   -6.7188    8.3452   -1.9898 H   0  0
   -7.7175    8.1155   -3.4667 H   0  0
   -6.0171    7.6066   -3.4440 H   0  0
   -2.1894    9.1168   -2.7396 H   0  0
   -2.3742   10.0534   -1.2165 H   0  0
   -2.9808    8.3888   -1.3267 H   0  0
   -7.2964    4.5392    0.8505 H   0  0
   -6.1493    5.8407    0.4564 H   0  0
    1.6454    5.3747   -2.9325 H   0  0
   -0.0283    5.9354   -3.1552 H   0  0
   -1.8772    3.0796   -0.0754 H   0  0
   -1.2791    1.8556   -1.1751 H   0  0
   -0.7108    0.3628    0.7696 H   0  0
   -1.3481    1.5529    1.8841 H   0  0
   -3.0307    0.2507   -0.3588 H   0  0
   -3.6457    1.5076    0.7454 H   0  0
    1.0212    2.0068   -0.0114 H   0  0
    1.1160    1.7449    1.7491 H   0  0
   -4.8329    1.2009   -3.9756 H   0  0
    0.4334    5.5305    3.3245 H   0  0
   -5.8602    3.7506    2.4923 H   0  0
    0.9865    3.1921   -3.3594 H   0  0
  1 19  1  0
  1 33  1  0
  1 37  2  0
  2 20  1  0
  2 34  1  0
  2 38  2  0
  3 21  1  0
  3 35  1  0
  3 39  2  0
  4 22  1  0
  4 36  1  0
  4 40  2  0
  5 23  1  0
  5 41  2  0
  5 47  1  0
  6 24  1  0
  6 42  2  0
  6 48  1  0
  7 25  1  0
  7 43  2  0
  7 49  1  0
  8 26  1  0
  8 44  2  0
  8 50  1  0
  9 11  1  0
  9 17  1  0
  9 33  1  0
 10 12  1  0
 10 18  1  0
 10 34  1  0
 11 13  1  0
 11 47  1  0
 12 14  1  0
 12 48  1  0
 13 15  1  0
 13 49  1  0
 14 16  1  0
 14 50  1  0
 15 27  1  0
 15 45  1  0
 16 28  1  0
 16 46  1  0
 17 45  1  0
 17 51  1  0
 18 46  1  0
 18 52  1  0
 27 35  1  0
 28 36  1  0
 29 30  1  0
 29 31  1  0
 30 32  1  0
 31 51  1  0
 32 52  1  0
  9 53  1  0
 10 54  1  0
 11 55  1  0
 12 56  1  0
 13 57  1  0
 14 58  1  0
 15 59  1  0
 16 60  1  0
 17 61  1  0
 18 62  1  0
 19 63  1  0
 19 64  1  0
 19 65  1  0
 20 66  1  0
 20 67  1  0
 20 68  1  0
 21 69  1  0
 21 70  1  0
 21 71  1  0
 22 72  1  0
 22 73  1  0
 22 74  1  0
 23 75  1  0
 23 76  1  0
 23 77  1  0
 24 78  1  0
 24 79  1  0
 24 80  1  0
 25 81  1  0
 25 82  1  0
 25 83  1  0
 26 84  1  0
 26 85  1  0
 26 86  1  0
 27 87  1  0
 27 88  1  0
 28 89  1  0
 28 90  1  0
 29 91  1  0
 29 92  1  0
 30 93  1  0
 30 94  1  0
 31 95  1  0
 31 96  1  0
 32 97  1  0
 32 98  1  0
 33 99  1  0
 34100  1  0
 35101  1  0
 36102  1  0
M  END
> <Name>
BR010062

$$$$
BR010063
  SciTegic05062102053D

 93 93  0  0  1  0            999 V2000
    5.1366    4.5563    1.8177 C   0  0
    1.6549    1.7642   -1.7819 C   0  0
    1.2973    1.6010    0.6762 C   0  0  2  0  0  0
    0.1570    0.5998    0.9054 C   0  0  2  0  0  0
   -1.1543    1.2939    1.2913 C   0  0  1  0  0  0
   -0.9791    2.4158    2.3289 C   0  0  1  0  0  0
    1.3696    2.6111    1.8278 C   0  0  2  0  0  0
    1.3814    2.6184   -2.9752 C   0  0
    5.8587   -2.3510   10.5481 C   0  0
   -3.5354    7.5525   -8.2707 C   0  0
    3.9283    5.2128    2.3998 C   0  0
   -0.8722    1.9115    3.7668 C   0  0
    5.0415   -3.0383    9.4647 C   0  0
   -4.2201    6.5149   -7.3940 C   0  0
    4.6356   -2.0562    8.3655 C   0  0
   -3.2173    5.8052   -6.4839 C   0  0
    3.8870   -2.7164    7.2036 C   0  0
   -3.8684    4.8130   -5.5156 C   0  0
    3.5027   -1.7914    6.0448 C   0  0
   -2.9191    4.1112   -4.5395 C   0  0
    2.7781   -2.5110    4.9054 C   0  0
   -3.6290    3.1502   -3.5838 C   0  0
    2.4472   -1.5472    3.7631 C   0  0
   -2.6389    2.5027   -2.6123 C   0  0
    1.7480   -2.2724    2.6095 C   0  0
   -3.3527    1.5629   -1.6362 C   0  0
    2.8310    4.2121    2.7366 C   0  0
    1.3848   -1.3274    1.4706 C   0  0
   -2.3832    0.8858   -0.6751 C   0  0
   -0.5266    2.5708    6.9820 N   0  5
   -0.7158    3.0595    4.6531 N   0  0
   -0.6171    2.8025    5.8688 N   0  3
    1.1479    2.2696   -0.5997 N   0  0
    2.2798    0.7189   -1.9176 O   0  0
    0.1191    3.2747    1.9986 O   0  0
    0.5232   -0.3035    1.9465 O   0  0
   -1.7091    1.8641    0.1020 O   0  0
    2.4062    3.5525    1.5538 O   0  0
    6.0011    5.1433    1.5282 H   0  0
    5.0826    3.5228    1.4946 H   0  0
    2.2385    1.0487    0.6174 H   0  0
    0.0042   -0.0280   -0.0002 H   0  0
   -1.8708    0.5434    1.6501 H   0  0
   -1.9232    3.0556    2.3005 H   0  0
    1.6196    2.1029    2.7524 H   0  0
    2.1761    3.3608   -3.1520 H   0  0
    1.3182    2.0323   -3.9062 H   0  0
    0.4461    3.1992   -2.9347 H   0  0
    6.7557   -1.8972   10.1154 H   0  0
    5.2793   -1.5601   11.0348 H   0  0
    6.1752   -3.0666   11.3136 H   0  0
   -3.0197    8.2919   -7.6500 H   0  0
   -2.7949    7.0849   -8.9273 H   0  0
   -4.2637    8.0807   -8.8943 H   0  0
    3.5525    5.9472    1.6790 H   0  0
    4.2282    5.7479    3.3069 H   0  0
   -0.0117    1.2484    3.8616 H   0  0
   -1.7736    1.3578    4.0312 H   0  0
    4.1527   -3.4818    9.9263 H   0  0
    5.6304   -3.8566    9.0347 H   0  0
   -4.7262    5.7904   -8.0410 H   0  0
   -4.9897    7.0072   -6.7885 H   0  0
    4.0306   -1.2482    8.7926 H   0  0
    5.5376   -1.5808    7.9594 H   0  0
   -2.4587    5.2970   -7.0903 H   0  0
   -2.6808    6.5553   -5.8889 H   0  0
    2.9726   -3.1826    7.5914 H   0  0
    4.5063   -3.5339    6.8135 H   0  0
   -4.3955    4.0458   -6.0966 H   0  0
   -4.6371    5.3446   -4.9410 H   0  0
    2.8500   -1.0042    6.4432 H   0  0
    4.3933   -1.2833    5.6576 H   0  0
   -2.1825    3.5505   -5.1291 H   0  0
   -2.3513    4.8538   -3.9673 H   0  0
    1.8534   -2.9622    5.2848 H   0  0
    3.4025   -3.3235    4.5172 H   0  0
   -4.1414    2.3705   -4.1601 H   0  0
   -4.3927    3.6871   -3.0101 H   0  0
    1.7998   -0.7442    4.1359 H   0  0
    3.3709   -1.0778    3.4043 H   0  0
   -1.8854    1.9400   -3.1766 H   0  0
   -2.1093    3.2860   -2.0572 H   0  0
    2.4126   -3.0579    2.2300 H   0  0
    0.8361   -2.7567    2.9773 H   0  0
   -4.0877    2.1399   -1.0620 H   0  0
   -3.8971    0.7939   -2.1963 H   0  0
    1.9679    4.7366    3.1591 H   0  0
    3.1729    3.4628    3.4582 H   0  0
    2.2892   -0.8576    1.0713 H   0  0
    0.8813   -1.8649    0.6605 H   0  0
   -2.9302    0.2244    0.0041 H   0  0
   -1.6406    0.2938   -1.2196 H   0  0
    0.6462    3.1524   -0.6271 H   0  0
  1 11  2  0
  2  8  1  0
  2 33  1  0
  2 34  2  0
  3  4  1  0
  3  7  1  0
  3 33  1  0
  4  5  1  0
  4 36  1  0
  5  6  1  0
  5 37  1  0
  6 12  1  0
  6 35  1  0
  7 35  1  0
  7 38  1  0
  9 13  1  0
 10 14  1  0
 11 27  1  0
 12 31  1  0
 13 15  1  0
 14 16  1  0
 15 17  1  0
 16 18  1  0
 17 19  1  0
 18 20  1  0
 19 21  1  0
 20 22  1  0
 21 23  1  0
 22 24  1  0
 23 25  1  0
 24 26  1  0
 25 28  1  0
 26 29  1  0
 27 38  1  0
 28 36  1  0
 29 37  1  0
 30 32  2  0
 31 32  2  0
  1 39  1  0
  1 40  1  0
  3 41  1  0
  4 42  1  0
  5 43  1  0
  6 44  1  0
  7 45  1  0
  8 46  1  0
  8 47  1  0
  8 48  1  0
  9 49  1  0
  9 50  1  0
  9 51  1  0
 10 52  1  0
 10 53  1  0
 10 54  1  0
 11 55  1  0
 11 56  1  0
 12 57  1  0
 12 58  1  0
 13 59  1  0
 13 60  1  0
 14 61  1  0
 14 62  1  0
 15 63  1  0
 15 64  1  0
 16 65  1  0
 16 66  1  0
 17 67  1  0
 17 68  1  0
 18 69  1  0
 18 70  1  0
 19 71  1  0
 19 72  1  0
 20 73  1  0
 20 74  1  0
 21 75  1  0
 21 76  1  0
 22 77  1  0
 22 78  1  0
 23 79  1  0
 23 80  1  0
 24 81  1  0
 24 82  1  0
 25 83  1  0
 25 84  1  0
 26 85  1  0
 26 86  1  0
 27 87  1  0
 27 88  1  0
 28 89  1  0
 28 90  1  0
 29 91  1  0
 29 92  1  0
 33 93  1  0
M  CHG  2  30  -1  32   1
M  END
> <Name>
BR010063

$$$$
BR010064
  SciTegic05062102053D

 94 94  0  0  1  0            999 V2000
    5.1366    4.5563    1.8177 C   0  0
    1.6549    1.7642   -1.7819 C   0  0
    1.2973    1.6010    0.6762 C   0  0  2  0  0  0
    0.1570    0.5998    0.9054 C   0  0  2  0  0  0
   -1.1543    1.2939    1.2913 C   0  0  1  0  0  0
   -0.9791    2.4158    2.3289 C   0  0  1  0  0  0
    1.3696    2.6111    1.8278 C   0  0  2  0  0  0
    1.3814    2.6184   -2.9752 C   0  0
    5.8587   -2.3510   10.5481 C   0  0
   -3.5354    7.5525   -8.2707 C   0  0
    3.9283    5.2128    2.3998 C   0  0
   -0.8722    1.9115    3.7668 C   0  0
    5.0415   -3.0383    9.4647 C   0  0
   -4.2201    6.5149   -7.3940 C   0  0
    4.6356   -2.0562    8.3655 C   0  0
   -3.2173    5.8052   -6.4839 C   0  0
    3.8870   -2.7164    7.2036 C   0  0
   -3.8684    4.8130   -5.5156 C   0  0
    3.5027   -1.7914    6.0448 C   0  0
   -2.9191    4.1112   -4.5395 C   0  0
    2.7781   -2.5110    4.9054 C   0  0
   -3.6290    3.1502   -3.5838 C   0  0
    2.4472   -1.5472    3.7631 C   0  0
   -2.6389    2.5027   -2.6123 C   0  0
    1.7480   -2.2724    2.6095 C   0  0
   -3.3527    1.5629   -1.6362 C   0  0
    2.8310    4.2121    2.7366 C   0  0
    1.3848   -1.3274    1.4706 C   0  0
   -2.3832    0.8858   -0.6751 C   0  0
    1.1479    2.2696   -0.5997 N   0  0
   -0.6663    3.0688    4.6616 N   0  3
    2.2798    0.7189   -1.9176 O   0  0
    0.1191    3.2747    1.9986 O   0  0
    0.5232   -0.3035    1.9465 O   0  0
   -1.7091    1.8641    0.1020 O   0  0
    2.4062    3.5525    1.5538 O   0  0
    6.0011    5.1433    1.5282 H   0  0
    5.0826    3.5228    1.4946 H   0  0
    2.2385    1.0487    0.6174 H   0  0
    0.0042   -0.0280   -0.0002 H   0  0
   -1.8708    0.5434    1.6501 H   0  0
   -1.9232    3.0556    2.3005 H   0  0
    1.6196    2.1029    2.7524 H   0  0
    2.1761    3.3608   -3.1520 H   0  0
    1.3182    2.0323   -3.9062 H   0  0
    0.4461    3.1992   -2.9347 H   0  0
    6.7557   -1.8972   10.1154 H   0  0
    5.2793   -1.5601   11.0348 H   0  0
    6.1752   -3.0666   11.3136 H   0  0
   -3.0197    8.2919   -7.6500 H   0  0
   -2.7949    7.0849   -8.9273 H   0  0
   -4.2637    8.0807   -8.8943 H   0  0
    3.5525    5.9472    1.6790 H   0  0
    4.2282    5.7479    3.3069 H   0  0
   -0.0186    1.2464    3.8857 H   0  0
   -1.7899    1.4142    4.0761 H   0  0
    4.1527   -3.4818    9.9263 H   0  0
    5.6304   -3.8566    9.0347 H   0  0
   -4.7262    5.7904   -8.0410 H   0  0
   -4.9897    7.0072   -6.7885 H   0  0
    4.0306   -1.2482    8.7926 H   0  0
    5.5376   -1.5808    7.9594 H   0  0
   -2.4587    5.2970   -7.0903 H   0  0
   -2.6808    6.5553   -5.8889 H   0  0
    2.9726   -3.1826    7.5914 H   0  0
    4.5063   -3.5339    6.8135 H   0  0
   -4.3955    4.0458   -6.0966 H   0  0
   -4.6371    5.3446   -4.9410 H   0  0
    2.8500   -1.0042    6.4432 H   0  0
    4.3933   -1.2833    5.6576 H   0  0
   -2.1825    3.5505   -5.1291 H   0  0
   -2.3513    4.8538   -3.9673 H   0  0
    1.8534   -2.9622    5.2848 H   0  0
    3.4025   -3.3235    4.5172 H   0  0
   -4.1414    2.3705   -4.1601 H   0  0
   -4.3927    3.6871   -3.0101 H   0  0
    1.7998   -0.7442    4.1359 H   0  0
    3.3709   -1.0778    3.4043 H   0  0
   -1.8854    1.9400   -3.1766 H   0  0
   -2.1093    3.2860   -2.0572 H   0  0
    2.4126   -3.0579    2.2300 H   0  0
    0.8361   -2.7567    2.9773 H   0  0
   -4.0877    2.1399   -1.0620 H   0  0
   -3.8971    0.7939   -2.1963 H   0  0
    1.9679    4.7366    3.1591 H   0  0
    3.1729    3.4628    3.4582 H   0  0
    2.2892   -0.8576    1.0713 H   0  0
    0.8813   -1.8649    0.6605 H   0  0
   -2.9302    0.2244    0.0041 H   0  0
   -1.6406    0.2938   -1.2196 H   0  0
    0.6462    3.1524   -0.6271 H   0  0
    0.2753    3.0592    5.0736 H   0  0
   -1.3439    3.0672    5.4347 H   0  0
   -0.7749    3.9564    4.1547 H   0  0
  1 11  2  0
  2  8  1  0
  2 30  1  0
  2 32  2  0
  3  4  1  0
  3  7  1  0
  3 30  1  0
  4  5  1  0
  4 34  1  0
  5  6  1  0
  5 35  1  0
  6 12  1  0
  6 33  1  0
  7 33  1  0
  7 36  1  0
  9 13  1  0
 10 14  1  0
 11 27  1  0
 12 31  1  0
 13 15  1  0
 14 16  1  0
 15 17  1  0
 16 18  1  0
 17 19  1  0
 18 20  1  0
 19 21  1  0
 20 22  1  0
 21 23  1  0
 22 24  1  0
 23 25  1  0
 24 26  1  0
 25 28  1  0
 26 29  1  0
 27 36  1  0
 28 34  1  0
 29 35  1  0
  1 37  1  0
  1 38  1  0
  3 39  1  0
  4 40  1  0
  5 41  1  0
  6 42  1  0
  7 43  1  0
  8 44  1  0
  8 45  1  0
  8 46  1  0
  9 47  1  0
  9 48  1  0
  9 49  1  0
 10 50  1  0
 10 51  1  0
 10 52  1  0
 11 53  1  0
 11 54  1  0
 12 55  1  0
 12 56  1  0
 13 57  1  0
 13 58  1  0
 14 59  1  0
 14 60  1  0
 15 61  1  0
 15 62  1  0
 16 63  1  0
 16 64  1  0
 17 65  1  0
 17 66  1  0
 18 67  1  0
 18 68  1  0
 19 69  1  0
 19 70  1  0
 20 71  1  0
 20 72  1  0
 21 73  1  0
 21 74  1  0
 22 75  1  0
 22 76  1  0
 23 77  1  0
 23 78  1  0
 24 79  1  0
 24 80  1  0
 25 81  1  0
 25 82  1  0
 26 83  1  0
 26 84  1  0
 27 85  1  0
 27 86  1  0
 28 87  1  0
 28 88  1  0
 29 89  1  0
 29 90  1  0
 30 91  1  0
 31 92  1  0
 31 93  1  0
 31 94  1  0
M  CHG  1  31   1
M  END
> <Name>
BR010064

$$$$
BR010065
  SciTegic05062102053D

 98 98  0  0  1  0            999 V2000
    5.1366    4.5563    1.8177 C   0  0
    1.6549    1.7642   -1.7819 C   0  0
    0.4010    3.1775    5.4870 C   0  0
    1.2973    1.6010    0.6762 C   0  0  2  0  0  0
    0.1570    0.5998    0.9054 C   0  0  2  0  0  0
   -1.1543    1.2939    1.2913 C   0  0  1  0  0  0
   -0.9791    2.4158    2.3289 C   0  0  1  0  0  0
    1.3696    2.6111    1.8278 C   0  0  2  0  0  0
    1.3814    2.6184   -2.9752 C   0  0
    0.3691    4.4078    6.3317 C   0  0
    5.8587   -2.3510   10.5481 C   0  0
   -3.5354    7.5525   -8.2707 C   0  0
    3.9283    5.2128    2.3998 C   0  0
   -0.8722    1.9115    3.7668 C   0  0
    5.0415   -3.0383    9.4647 C   0  0
   -4.2201    6.5149   -7.3940 C   0  0
    4.6356   -2.0562    8.3655 C   0  0
   -3.2173    5.8052   -6.4839 C   0  0
    3.8870   -2.7164    7.2036 C   0  0
   -3.8684    4.8130   -5.5156 C   0  0
    3.5027   -1.7914    6.0448 C   0  0
   -2.9191    4.1112   -4.5395 C   0  0
    2.7781   -2.5110    4.9054 C   0  0
   -3.6290    3.1502   -3.5838 C   0  0
    2.4472   -1.5472    3.7631 C   0  0
   -2.6389    2.5027   -2.6123 C   0  0
    1.7480   -2.2724    2.6095 C   0  0
   -3.3527    1.5629   -1.6362 C   0  0
    2.8310    4.2121    2.7366 C   0  0
    1.3848   -1.3274    1.4706 C   0  0
   -2.3832    0.8858   -0.6751 C   0  0
    1.1479    2.2696   -0.5997 N   0  0
   -0.7037    3.0133    4.6537 N   0  0
    2.2798    0.7189   -1.9176 O   0  0
    1.3557    2.4136    5.5679 O   0  0
    0.1191    3.2747    1.9986 O   0  0
    0.5232   -0.3035    1.9465 O   0  0
   -1.7091    1.8641    0.1020 O   0  0
    2.4062    3.5525    1.5538 O   0  0
    6.0011    5.1433    1.5282 H   0  0
    5.0826    3.5228    1.4946 H   0  0
    2.2385    1.0487    0.6174 H   0  0
    0.0042   -0.0280   -0.0002 H   0  0
   -1.8708    0.5434    1.6501 H   0  0
   -1.9232    3.0556    2.3005 H   0  0
    1.6196    2.1029    2.7524 H   0  0
    2.1761    3.3608   -3.1520 H   0  0
    1.3182    2.0323   -3.9062 H   0  0
    0.4461    3.1992   -2.9347 H   0  0
   -0.1178    4.2369    7.3053 H   0  0
    1.3783    4.7790    6.5721 H   0  0
   -0.1587    5.2686    5.8909 H   0  0
    6.7557   -1.8972   10.1154 H   0  0
    5.2793   -1.5601   11.0348 H   0  0
    6.1752   -3.0666   11.3136 H   0  0
   -3.0197    8.2919   -7.6500 H   0  0
   -2.7949    7.0849   -8.9273 H   0  0
   -4.2637    8.0807   -8.8943 H   0  0
    3.5525    5.9472    1.6790 H   0  0
    4.2282    5.7479    3.3069 H   0  0
   -0.0144    1.2560    3.8428 H   0  0
   -1.7799    1.3815    4.0229 H   0  0
    4.1527   -3.4818    9.9263 H   0  0
    5.6304   -3.8566    9.0347 H   0  0
   -4.7262    5.7904   -8.0410 H   0  0
   -4.9897    7.0072   -6.7885 H   0  0
    4.0306   -1.2482    8.7926 H   0  0
    5.5376   -1.5808    7.9594 H   0  0
   -2.4587    5.2970   -7.0903 H   0  0
   -2.6808    6.5553   -5.8889 H   0  0
    2.9726   -3.1826    7.5914 H   0  0
    4.5063   -3.5339    6.8135 H   0  0
   -4.3955    4.0458   -6.0966 H   0  0
   -4.6371    5.3446   -4.9410 H   0  0
    2.8500   -1.0042    6.4432 H   0  0
    4.3933   -1.2833    5.6576 H   0  0
   -2.1825    3.5505   -5.1291 H   0  0
   -2.3513    4.8538   -3.9673 H   0  0
    1.8534   -2.9622    5.2848 H   0  0
    3.4025   -3.3235    4.5172 H   0  0
   -4.1414    2.3705   -4.1601 H   0  0
   -4.3927    3.6871   -3.0101 H   0  0
    1.7998   -0.7442    4.1359 H   0  0
    3.3709   -1.0778    3.4043 H   0  0
   -1.8854    1.9400   -3.1766 H   0  0
   -2.1093    3.2860   -2.0572 H   0  0
    2.4126   -3.0579    2.2300 H   0  0
    0.8361   -2.7567    2.9773 H   0  0
   -4.0877    2.1399   -1.0620 H   0  0
   -3.8971    0.7939   -2.1963 H   0  0
    1.9679    4.7366    3.1591 H   0  0
    3.1729    3.4628    3.4582 H   0  0
    2.2892   -0.8576    1.0713 H   0  0
    0.8813   -1.8649    0.6605 H   0  0
   -2.9302    0.2244    0.0041 H   0  0
   -1.6406    0.2938   -1.2196 H   0  0
    0.6462    3.1524   -0.6271 H   0  0
   -1.4387    3.7277    4.6806 H   0  0
  1 13  2  0
  2  9  1  0
  2 32  1  0
  2 34  2  0
  3 10  1  0
  3 33  1  0
  3 35  2  0
  4  5  1  0
  4  8  1  0
  4 32  1  0
  5  6  1  0
  5 37  1  0
  6  7  1  0
  6 38  1  0
  7 14  1  0
  7 36  1  0
  8 36  1  0
  8 39  1  0
 11 15  1  0
 12 16  1  0
 13 29  1  0
 14 33  1  0
 15 17  1  0
 16 18  1  0
 17 19  1  0
 18 20  1  0
 19 21  1  0
 20 22  1  0
 21 23  1  0
 22 24  1  0
 23 25  1  0
 24 26  1  0
 25 27  1  0
 26 28  1  0
 27 30  1  0
 28 31  1  0
 29 39  1  0
 30 37  1  0
 31 38  1  0
  1 40  1  0
  1 41  1  0
  4 42  1  0
  5 43  1  0
  6 44  1  0
  7 45  1  0
  8 46  1  0
  9 47  1  0
  9 48  1  0
  9 49  1  0
 10 50  1  0
 10 51  1  0
 10 52  1  0
 11 53  1  0
 11 54  1  0
 11 55  1  0
 12 56  1  0
 12 57  1  0
 12 58  1  0
 13 59  1  0
 13 60  1  0
 14 61  1  0
 14 62  1  0
 15 63  1  0
 15 64  1  0
 16 65  1  0
 16 66  1  0
 17 67  1  0
 17 68  1  0
 18 69  1  0
 18 70  1  0
 19 71  1  0
 19 72  1  0
 20 73  1  0
 20 74  1  0
 21 75  1  0
 21 76  1  0
 22 77  1  0
 22 78  1  0
 23 79  1  0
 23 80  1  0
 24 81  1  0
 24 82  1  0
 25 83  1  0
 25 84  1  0
 26 85  1  0
 26 86  1  0
 27 87  1  0
 27 88  1  0
 28 89  1  0
 28 90  1  0
 29 91  1  0
 29 92  1  0
 30 93  1  0
 30 94  1  0
 31 95  1  0
 31 96  1  0
 32 97  1  0
 33 98  1  0
M  END
> <Name>
BR010065

$$$$
BR010066
  SciTegic05062102053D

185186  0  0  1  0            999 V2000
   -9.9740    3.5261    1.3056 C   0  0  1  0  0  0
   -9.8618    1.9437    1.5706 C   0  0  1  0  0  0
   -8.4066    1.6507    1.9251 C   0  0  2  0  0  0
   -7.5026    2.0880    0.7505 C   0  0  2  0  0  0
   -7.6322    3.5149    0.5273 O   0  0
   -8.9861    3.9048    0.1743 C   0  0  2  0  0  0
   -9.0115    5.4245   -0.0481 C   0  0
   -9.2735    3.3949   -0.7531 H   0  0
  -11.3484    3.9792    0.9558 O   0  0
   -9.6701    4.0447    2.2248 H   0  0
  -10.6922    1.4023    2.6987 O   0  0
  -10.1208    1.3941    0.6558 H   0  0
   -8.1209    2.1988    2.8284 H   0  0
   -8.2578    0.2155    2.1126 N   0  0
   -6.4619    1.8535    1.0080 H   0  0
   -7.8971    1.3535   -0.4310 O   0  0
   -8.1104    5.7714   -1.0974 N   0  0
   -8.1401    6.9945   -1.6104 C   0  0
   -7.2084    7.3604   -2.7200 C   0  0
   -8.9409    7.8290   -1.1745 O   0  0
   -7.3812   -0.3460    2.9708 C   0  0
   -7.3442   -1.5788    3.0444 O   0  0
   -6.4374    0.4555    3.8506 C   0  0
  -11.9855    3.4729   -0.2836 C   0  0
  -13.4698    3.8332   -0.1416 C   0  0
  -14.3088    3.2412   -1.2606 C   0  0
  -15.7644    3.5666   -0.9210 C   0  0
  -16.7090    2.9404   -1.9368 C   0  0
  -18.1388    3.2612   -1.5005 C   0  0
  -19.1281    2.6224   -2.4686 C   0  0
  -20.5471    2.9474   -1.9998 C   0  0
  -21.5545    2.3011   -2.9569 C   0  0
  -12.0645    1.4229    2.3375 C   0  0
  -13.0621    0.7624    3.2664 C   0  0
  -14.3739    0.9760    2.4885 C   0  0
  -15.6118    0.3999    3.1446 C   0  0
  -16.7541    0.7203    2.1660 C   0  0
  -18.0887    0.1902    2.6668 C   0  0
  -19.1486    0.5434    1.6159 C   0  0
  -20.5125    0.0236    2.0656 C   0  0
  -21.5544    0.3806    0.9968 C   0  0
   -7.0313    1.6041   -1.5606 C   0  0
   -5.6672    0.9989   -1.3932 C   0  0
   -4.6584    1.4902   -2.1030 C   0  0
   -3.2832    0.8890   -2.0228 C   0  0
   -1.2901    3.9887   -1.5515 C   0  0  1  0  0  0
   -2.1125    2.7725   -1.1315 C   0  0  2  0  0  0
   -1.4153    2.0524   -0.0675 O   0  0
   -0.1268    1.5441   -0.5412 C   0  0  1  0  0  0
    0.7996    2.7238   -0.9754 C   0  0  2  0  0  0
    0.0787    3.5132   -2.0736 C   0  0  2  0  0  0
   10.8427    5.8159   -1.7219 C   0  0
    9.6417    6.7238   -2.0141 C   0  0
    8.3570    5.9177   -1.8302 C   0  0
    7.1524    6.8165   -2.1093 C   0  0
    5.8916    5.9930   -1.9001 C   0  0
    4.6504    6.8530   -2.1257 C   0  0
    3.4496    5.9680   -1.8434 C   0  0
    2.1483    6.7385   -1.9575 C   0  0
    1.0288    5.7716   -1.5720 C   0  0
    0.9434    4.6433   -2.5151 O   0  0
   -0.0834    2.8370   -2.9233 H   0  0
   -3.0851    3.1304   -0.7718 H   0  0
   -2.2895    1.9028   -2.2710 O   0  0
    1.0025    3.3803   -0.1203 H   0  0
    2.0321    2.2422   -1.6062 O   0  0
   -1.9867    4.6749   -2.5895 N   0  0
   -1.1908    4.6377   -0.6721 H   0  0
   -2.9104    5.5810   -2.2931 C   0  0
   -3.6280    6.2857   -3.3949 C   0  0
   -3.1770    5.8418   -1.1143 O   0  0
    0.4643    0.7785    0.5100 N   0  0
   -0.3297    0.8917   -1.3994 H   0  0
    0.2235   -0.5241    0.5993 C   0  0
    0.8511   -1.3181    1.7005 C   0  0
   -0.5120   -1.0798   -0.2243 O   0  0
   11.3531    4.1215    4.1710 C   0  0
   10.0405    4.6360    3.5663 C   0  0
    9.2326    3.4477    3.0417 C   0  0
    7.9315    3.9633    2.4309 C   0  0
    7.1307    2.7821    1.8860 C   0  0
    5.8560    3.3172    1.2457 C   0  0
    5.0655    2.1643    0.6308 C   0  0
    3.8533    2.7551   -0.0747 C   0  0
    3.0949    1.6581   -0.8180 C   0  0
  -10.0224    5.7586   -0.3178 H   0  0
   -8.7106    5.9403    0.8734 H   0  0
   -8.8372   -0.3861    1.5749 H   0  0
   -7.4698    5.0957   -1.4504 H   0  0
   -7.6847    8.0927   -3.3876 H   0  0
   -6.8806    6.4581   -3.2576 H   0  0
   -6.3235    7.8403   -2.2771 H   0  0
   -5.8286   -0.2111    4.4775 H   0  0
   -7.0260    1.1474    4.4718 H   0  0
   -5.7958    1.0797    3.2101 H   0  0
  -11.5393    3.9023   -1.1913 H   0  0
  -11.9098    2.3810   -0.3159 H   0  0
  -13.8284    3.3975    0.7985 H   0  0
  -13.5950    4.9238   -0.1040 H   0  0
  -14.0215    3.6575   -2.2359 H   0  0
  -14.1800    2.1495   -1.2685 H   0  0
  -15.9943    3.1462    0.0702 H   0  0
  -15.9067    4.6556   -0.8968 H   0  0
  -16.5146    3.3463   -2.9391 H   0  0
  -16.5669    1.8507   -1.9446 H   0  0
  -18.3091    2.8547   -0.4920 H   0  0
  -18.2842    4.3500   -1.4858 H   0  0
  -18.9693    3.0211   -3.4801 H   0  0
  -18.9837    1.5329   -2.4747 H   0  0
  -20.6957    2.5498   -0.9858 H   0  0
  -20.6898    4.0371   -1.9915 H   0  0
  -22.5765    2.5313   -2.6235 H   0  0
  -21.4054    1.2118   -2.9605 H   0  0
  -21.3999    2.6964   -3.9709 H   0  0
  -12.1499    0.9164    1.3658 H   0  0
  -12.3782    2.4549    2.2310 H   0  0
  -12.8455   -0.3085    3.3816 H   0  0
  -13.0884    1.2561    4.2478 H   0  0
  -14.5259    2.0561    2.3508 H   0  0
  -14.2634    0.5039    1.5017 H   0  0
  -15.5091   -0.6869    3.2667 H   0  0
  -15.7904    0.8726    4.1203 H   0  0
  -16.8238    1.8103    2.0355 H   0  0
  -16.5297    0.2546    1.1956 H   0  0
  -18.0344   -0.9005    2.7872 H   0  0
  -18.3415    0.6568    3.6289 H   0  0
  -19.1932    1.6352    1.4908 H   0  0
  -18.8793    0.0778    0.6567 H   0  0
  -20.4671   -1.0679    2.1872 H   0  0
  -20.7865    0.4900    3.0222 H   0  0
  -22.5418    0.0113    1.3076 H   0  0
  -21.2708   -0.0851    0.0412 H   0  0
  -21.5911    1.4730    0.8733 H   0  0
   -7.4824    1.1190   -2.4365 H   0  0
   -6.9515    2.6790   -1.7810 H   0  0
   -5.5159    0.1797   -0.7356 H   0  0
   -4.8303    2.3132   -2.7509 H   0  0
   -3.1177    0.3613   -1.0723 H   0  0
   -3.2145    0.1613   -2.8426 H   0  0
   11.7737    6.3862   -1.8501 H   0  0
   10.8335    4.9645   -2.4171 H   0  0
   10.7764    5.4461   -0.6876 H   0  0
    9.6435    7.5736   -1.3168 H   0  0
    9.6983    7.0948   -3.0471 H   0  0
    8.3508    5.0667   -2.5251 H   0  0
    8.3030    5.5465   -0.7948 H   0  0
    7.1585    7.6633   -1.4089 H   0  0
    7.1902    7.1909   -3.1415 H   0  0
    5.8833    5.1409   -2.5935 H   0  0
    5.8803    5.6213   -0.8669 H   0  0
    4.6588    7.6950   -1.4197 H   0  0
    4.6192    7.2323   -3.1561 H   0  0
    3.4424    5.1153   -2.5372 H   0  0
    3.5353    5.5959   -0.8139 H   0  0
    2.1653    7.5754   -1.2454 H   0  0
    2.0039    7.1209   -2.9772 H   0  0
    1.2492    5.4075   -0.5603 H   0  0
    0.0724    6.3128   -1.5646 H   0  0
   -1.7794    4.4724   -3.5393 H   0  0
   -3.9331    7.2904   -3.0679 H   0  0
   -4.5403    5.7147   -3.6234 H   0  0
   -3.0045    6.3120   -4.2996 H   0  0
    1.0542    1.2208    1.1768 H   0  0
    0.6859   -2.3948    1.5506 H   0  0
    0.4092   -0.9973    2.6545 H   0  0
    1.9229   -1.0754    1.7541 H   0  0
   11.9403    4.9704    4.5495 H   0  0
   11.9279    3.5928    3.3967 H   0  0
   11.1288    3.4315    4.9965 H   0  0
    9.4596    5.1640    4.3352 H   0  0
   10.2617    5.3223    2.7358 H   0  0
    9.8147    2.9220    2.2715 H   0  0
    9.0070    2.7579    3.8665 H   0  0
    7.3434    4.4912    3.1938 H   0  0
    8.1671    4.6528    1.6057 H   0  0
    7.7290    2.2647    1.1230 H   0  0
    6.8829    2.0829    2.6964 H   0  0
    5.2440    3.8403    1.9929 H   0  0
    6.1353    4.0170    0.4472 H   0  0
    5.6994    1.6627   -0.1136 H   0  0
    4.7571    1.4424    1.3998 H   0  0
    3.1988    3.2699    0.6428 H   0  0
    4.2191    3.4717   -0.8144 H   0  0
    3.8082    1.1965   -1.5140 H   0  0
    2.7168    0.8932   -0.1314 H   0  0
  1  2  1  0
  2  3  1  0
  3  4  1  0
  4  5  1  0
  5  6  1  0
  1  6  1  0
  6  7  1  0
  6  8  1  0
  1  9  1  0
  1 10  1  0
  2 11  1  0
  2 12  1  0
  3 13  1  0
  3 14  1  0
  4 15  1  0
  4 16  1  0
  7 17  1  0
 17 18  1  0
 18 19  1  0
 18 20  2  0
 14 21  1  0
 21 22  2  0
 21 23  1  0
  9 24  1  0
 24 25  1  0
 25 26  1  0
 26 27  1  0
 27 28  1  0
 28 29  1  0
 29 30  1  0
 30 31  1  0
 31 32  1  0
 33 34  1  0
 34 35  1  0
 35 36  1  0
 36 37  1  0
 37 38  1  0
 38 39  1  0
 39 40  1  0
 40 41  1  0
 11 33  1  0
 16 42  1  0
 42 43  1  0
 43 44  2  0
 44 45  1  0
 46 47  1  0
 47 48  1  0
 48 49  1  0
 49 50  1  0
 50 51  1  0
 46 51  1  0
 52 53  1  0
 53 54  1  0
 54 55  1  0
 55 56  1  0
 56 57  1  0
 57 58  1  0
 58 59  1  0
 59 60  1  0
 51 61  1  0
 51 62  1  0
 47 63  1  0
 47 64  1  0
 60 61  1  0
 50 65  1  0
 50 66  1  0
 46 67  1  0
 46 68  1  0
 67 69  1  0
 69 70  1  0
 69 71  2  0
 49 72  1  0
 49 73  1  0
 72 74  1  0
 74 75  1  0
 74 76  2  0
 77 78  1  0
 78 79  1  0
 79 80  1  0
 80 81  1  0
 81 82  1  0
 82 83  1  0
 83 84  1  0
 84 85  1  0
 66 85  1  0
 45 64  1  0
  7 86  1  0
  7 87  1  0
 14 88  1  0
 17 89  1  0
 19 90  1  0
 19 91  1  0
 19 92  1  0
 23 93  1  0
 23 94  1  0
 23 95  1  0
 24 96  1  0
 24 97  1  0
 25 98  1  0
 25 99  1  0
 26100  1  0
 26101  1  0
 27102  1  0
 27103  1  0
 28104  1  0
 28105  1  0
 29106  1  0
 29107  1  0
 30108  1  0
 30109  1  0
 31110  1  0
 31111  1  0
 32112  1  0
 32113  1  0
 32114  1  0
 33115  1  0
 33116  1  0
 34117  1  0
 34118  1  0
 35119  1  0
 35120  1  0
 36121  1  0
 36122  1  0
 37123  1  0
 37124  1  0
 38125  1  0
 38126  1  0
 39127  1  0
 39128  1  0
 40129  1  0
 40130  1  0
 41131  1  0
 41132  1  0
 41133  1  0
 42134  1  0
 42135  1  0
 43136  1  0
 44137  1  0
 45138  1  0
 45139  1  0
 52140  1  0
 52141  1  0
 52142  1  0
 53143  1  0
 53144  1  0
 54145  1  0
 54146  1  0
 55147  1  0
 55148  1  0
 56149  1  0
 56150  1  0
 57151  1  0
 57152  1  0
 58153  1  0
 58154  1  0
 59155  1  0
 59156  1  0
 60157  1  0
 60158  1  0
 67159  1  0
 70160  1  0
 70161  1  0
 70162  1  0
 72163  1  0
 75164  1  0
 75165  1  0
 75166  1  0
 77167  1  0
 77168  1  0
 77169  1  0
 78170  1  0
 78171  1  0
 79172  1  0
 79173  1  0
 80174  1  0
 80175  1  0
 81176  1  0
 81177  1  0
 82178  1  0
 82179  1  0
 83180  1  0
 83181  1  0
 84182  1  0
 84183  1  0
 85184  1  0
 85185  1  0
M  END
> <Name>
BR010066

$$$$
BR010067
  SciTegic05062102053D

185186  0  0  1  0            999 V2000
   -9.5852    4.4166    0.6539 C   0  0  1  0  0  0
   -9.1853    2.9933    1.2999 C   0  0  1  0  0  0
   -7.7440    3.1450    1.8063 C   0  0  2  0  0  0
   -6.8194    3.5215    0.6292 C   0  0  2  0  0  0
   -7.2367    4.7696    0.0472 O   0  0
   -8.5788    4.7459   -0.4720 C   0  0  2  0  0  0
   -8.8635    6.1333   -1.0542 C   0  0
   -8.6480    3.9915   -1.2664 H   0  0
  -10.9714    4.4780    0.1308 O   0  0
   -9.4928    5.1793    1.4389 H   0  0
  -10.0140    2.5571    2.4794 O   0  0
   -9.2259    2.2091    0.5315 H   0  0
   -7.7031    3.9405    2.5597 H   0  0
   -7.2899    1.8766    2.3609 N   0  0
   -5.7986    3.6391    1.0128 H   0  0
   -6.7958    2.4550   -0.3194 O   0  0
   -7.9108    6.4053   -2.0790 N   0  0
   -7.8643    7.6044   -2.6410 C   0  0
   -6.8555    7.8829   -3.7103 C   0  0
   -8.6492    8.4889   -2.2814 O   0  0
   -6.3382    1.7625    3.3114 C   0  0
   -6.0348    0.6292    3.6987 O   0  0
   -5.6190    2.9490    3.9305 C   0  0
  -11.3848    3.6022   -0.9836 C   0  0
  -12.9145    3.7267   -1.0034 C   0  0
  -13.5717    2.7943   -2.0049 C   0  0
  -15.0796    2.9727   -1.8050 C   0  0
  -15.8713    2.0385   -2.7082 C   0  0
  -17.3551    2.2572   -2.4038 C   0  0
  -18.2046    1.3279   -3.2631 C   0  0
  -19.6780    1.5657   -2.9249 C   0  0
  -20.5481    0.6344   -3.7759 C   0  0
  -11.3489    2.2683    2.0758 C   0  0
  -12.3057    1.7056    3.1096 C   0  0
  -13.5903    1.5587    2.2727 C   0  0
  -14.7913    1.0127    3.0195 C   0  0
  -15.9141    0.9786    1.9686 C   0  0
  -17.2194    0.4545    2.5486 C   0  0
  -18.2585    0.4678    1.4195 C   0  0
  -19.5981   -0.0481    1.9411 C   0  0
  -20.6165   -0.0233    0.7923 C   0  0
   -5.8960    2.7700   -1.3941 C   0  0
   -5.6361    1.4958   -2.1707 C   0  0
   -4.8375    0.5187   -1.6990 C   0  0
   -4.1238    0.6100   -0.3480 C   0  0
   -1.9896    3.4008    0.8784 C   0  0  1  0  0  0
   -2.6580    2.0199    0.9231 C   0  0  2  0  0  0
   -1.6587    0.9939    1.1899 O   0  0
   -0.6520    0.9366    0.1404 C   0  0  1  0  0  0
    0.0992    2.2996    0.0287 C   0  0  2  0  0  0
   -0.9400    3.3928   -0.2580 C   0  0  2  0  0  0
    8.8600    6.9861   -3.7789 C   0  0
    7.7347    7.7084   -3.0262 C   0  0
    6.6542    6.6920   -2.6558 C   0  0
    5.5308    7.3996   -1.8969 C   0  0
    4.4738    6.3647   -1.5273 C   0  0
    3.3425    7.0298   -0.7408 C   0  0
    2.3514    5.9378   -0.3781 C   0  0
    1.2063    6.4758    0.4676 C   0  0
    0.3175    5.2799    0.8169 C   0  0
   -0.2498    4.7002   -0.4064 O   0  0
   -1.4393    3.1552   -1.2070 H   0  0
   -3.4124    2.0233    1.7229 H   0  0
   -3.3101    1.8018   -0.3353 O   0  0
    0.6123    2.5257    0.9703 H   0  0
    1.0312    2.3279   -1.1087 O   0  0
   -2.9866    4.3918    0.5971 N   0  0
   -1.5183    3.5983    1.8486 H   0  0
   -3.3687    5.2507    1.5369 C   0  0
   -4.4015    6.2864    1.2202 C   0  0
   -2.8726    5.2005    2.6677 O   0  0
    0.2402   -0.1320    0.4579 N   0  0
   -1.1711    0.7167   -0.8011 H   0  0
   -0.0042   -1.3576    0.0119 C   0  0
    0.9384   -2.4673    0.3531 C   0  0
   -1.0024   -1.5814   -0.6820 O   0  0
   11.5243    2.2385    2.6936 C   0  0
   10.1082    2.8276    2.6991 C   0  0
    9.2069    1.9758    1.8019 C   0  0
    7.8007    2.5725    1.8047 C   0  0
    6.8945    1.7388    0.8986 C   0  0
    5.5036    2.3666    0.8948 C   0  0
    4.5827    1.5779   -0.0357 C   0  0
    3.2328    2.2770   -0.0450 C   0  0
    2.2797    1.5903   -1.0311 C   0  0
   -9.8761    6.1705   -1.4773 H   0  0
   -8.7853    6.9005   -0.2720 H   0  0
   -7.7051    1.0434    2.0139 H   0  0
   -7.2757    5.6952   -2.3678 H   0  0
   -6.9517    8.9127   -4.0830 H   0  0
   -6.9906    7.1547   -4.5229 H   0  0
   -5.8502    7.7066   -3.3003 H   0  0
   -5.0449    3.4613    3.1435 H   0  0
   -4.9487    2.6195    4.7364 H   0  0
   -6.3596    3.6730    4.3007 H   0  0
  -10.9327    3.8990   -1.9400 H   0  0
  -11.1281    2.5610   -0.7561 H   0  0
  -13.2823    3.4486   -0.0088 H   0  0
  -13.2016    4.7657   -1.2147 H   0  0
  -13.2719    3.0417   -3.0324 H   0  0
  -13.2963    1.7554   -1.7744 H   0  0
  -15.3242    2.7342   -0.7584 H   0  0
  -15.3581    4.0145   -2.0149 H   0  0
  -15.6609    2.2612   -3.7633 H   0  0
  -15.6015    0.9963   -2.4882 H   0  0
  -17.5429    2.0384   -1.3416 H   0  0
  -17.6229    3.3016   -2.6149 H   0  0
  -18.0278    1.5406   -4.3266 H   0  0
  -17.9411    0.2832   -3.0472 H   0  0
  -19.8461    1.3552   -1.8589 H   0  0
  -19.9383    2.6121   -3.1379 H   0  0
  -21.6078    0.8018   -3.5357 H   0  0
  -20.2824   -0.4102   -3.5600 H   0  0
  -20.3742    0.8450   -4.8408 H   0  0
  -11.2970    1.5455    1.2496 H   0  0
  -11.8022    3.1856    1.7194 H   0  0
  -11.9613    0.7329    3.4873 H   0  0
  -12.4525    2.4094    3.9404 H   0  0
  -13.8574    2.5504    1.8801 H   0  0
  -13.3767    0.8881    1.4281 H   0  0
  -14.5852    0.0022    3.3985 H   0  0
  -15.0628    1.6780    3.8506 H   0  0
  -16.0773    1.9977    1.5881 H   0  0
  -15.6059    0.3287    1.1373 H   0  0
  -17.0808   -0.5706    2.9188 H   0  0
  -17.5514    1.1037    3.3705 H   0  0
  -18.3820    1.4960    1.0489 H   0  0
  -17.9134   -0.1761    0.5979 H   0  0
  -19.4781   -1.0771    2.3082 H   0  0
  -19.9469    0.5971    2.7597 H   0  0
  -21.5871   -0.3921    1.1530 H   0  0
  -20.2591   -0.6653   -0.0262 H   0  0
  -20.7272    1.0079    0.4252 H   0  0
   -6.3379    3.5500   -2.0294 H   0  0
   -4.9653    3.1257   -0.9463 H   0  0
   -6.0979    1.3689   -3.1167 H   0  0
   -4.7049   -0.3553   -2.2846 H   0  0
   -4.8750    0.7225    0.4497 H   0  0
   -3.5070   -0.2824   -0.1705 H   0  0
    9.6435    7.7080   -4.0495 H   0  0
    8.4526    6.5258   -4.6901 H   0  0
    9.2869    6.2048   -3.1329 H   0  0
    8.1372    8.1648   -2.1107 H   0  0
    7.3009    8.4888   -3.6667 H   0  0
    6.2500    6.2334   -3.5688 H   0  0
    7.0909    5.9116   -2.0158 H   0  0
    5.9364    7.8534   -0.9819 H   0  0
    5.0849    8.1798   -2.5288 H   0  0
    4.0690    5.9061   -2.4400 H   0  0
    4.9360    5.5859   -0.9014 H   0  0
    3.7495    7.4772    0.1765 H   0  0
    2.8543    7.8052   -1.3469 H   0  0
    1.9538    5.4795   -1.2946 H   0  0
    2.8792    5.1778    0.2077 H   0  0
    1.6128    6.9127    1.3902 H   0  0
    0.6364    7.2362   -0.0843 H   0  0
    0.9439    4.5453    1.3378 H   0  0
   -0.4924    5.6069    1.4814 H   0  0
   -3.3899    4.4404   -0.3091 H   0  0
   -3.9809    7.2820    1.4186 H   0  0
   -5.2491    6.1609    1.9107 H   0  0
   -4.7346    6.1986    0.1746 H   0  0
    1.0420    0.0397    1.0200 H   0  0
    0.6458   -3.4002   -0.1496 H   0  0
    0.9406   -2.6010    1.4444 H   0  0
    1.9592   -2.1655    0.0750 H   0  0
   12.1772    2.8470    3.3357 H   0  0
   11.9150    2.2393    1.6657 H   0  0
   11.4919    1.2076    3.0729 H   0  0
    9.7109    2.8280    3.7237 H   0  0
   10.1369    3.8577    2.3154 H   0  0
    9.6036    1.9775    0.7768 H   0  0
    9.1726    0.9453    2.1810 H   0  0
    7.4003    2.5745    2.8277 H   0  0
    7.8437    3.6035    1.4256 H   0  0
    7.2993    1.7432   -0.1231 H   0  0
    6.8394    0.7058    1.2684 H   0  0
    5.0910    2.3700    1.9130 H   0  0
    5.5803    3.4013    0.5274 H   0  0
    5.0035    1.5891   -1.0508 H   0  0
    4.4767    0.5402    0.3097 H   0  0
    2.8056    2.2818    0.9673 H   0  0
    3.3897    3.3041   -0.3791 H   0  0
    2.7548    1.6212   -2.0208 H   0  0
    2.1077    0.5472   -0.7481 H   0  0
  1  2  1  0
  2  3  1  0
  3  4  1  0
  4  5  1  0
  5  6  1  0
  1  6  1  0
  6  7  1  0
  6  8  1  0
  1  9  1  0
  1 10  1  0
  2 11  1  0
  2 12  1  0
  3 13  1  0
  3 14  1  0
  4 15  1  0
  4 16  1  0
  7 17  1  0
 17 18  1  0
 18 19  1  0
 18 20  2  0
 14 21  1  0
 21 22  2  0
 21 23  1  0
  9 24  1  0
 24 25  1  0
 25 26  1  0
 26 27  1  0
 27 28  1  0
 28 29  1  0
 29 30  1  0
 30 31  1  0
 31 32  1  0
 33 34  1  0
 34 35  1  0
 35 36  1  0
 36 37  1  0
 37 38  1  0
 38 39  1  0
 39 40  1  0
 40 41  1  0
 11 33  1  0
 16 42  1  0
 42 43  1  0
 43 44  2  0
 44 45  1  0
 46 47  1  0
 47 48  1  0
 48 49  1  0
 49 50  1  0
 50 51  1  0
 46 51  1  0
 52 53  1  0
 53 54  1  0
 54 55  1  0
 55 56  1  0
 56 57  1  0
 57 58  1  0
 58 59  1  0
 59 60  1  0
 51 61  1  0
 51 62  1  0
 47 63  1  0
 47 64  1  0
 60 61  1  0
 50 65  1  0
 50 66  1  0
 46 67  1  0
 46 68  1  0
 67 69  1  0
 69 70  1  0
 69 71  2  0
 49 72  1  0
 49 73  1  0
 72 74  1  0
 74 75  1  0
 74 76  2  0
 77 78  1  0
 78 79  1  0
 79 80  1  0
 80 81  1  0
 81 82  1  0
 82 83  1  0
 83 84  1  0
 84 85  1  0
 66 85  1  0
 45 64  1  0
  7 86  1  0
  7 87  1  0
 14 88  1  0
 17 89  1  0
 19 90  1  0
 19 91  1  0
 19 92  1  0
 23 93  1  0
 23 94  1  0
 23 95  1  0
 24 96  1  0
 24 97  1  0
 25 98  1  0
 25 99  1  0
 26100  1  0
 26101  1  0
 27102  1  0
 27103  1  0
 28104  1  0
 28105  1  0
 29106  1  0
 29107  1  0
 30108  1  0
 30109  1  0
 31110  1  0
 31111  1  0
 32112  1  0
 32113  1  0
 32114  1  0
 33115  1  0
 33116  1  0
 34117  1  0
 34118  1  0
 35119  1  0
 35120  1  0
 36121  1  0
 36122  1  0
 37123  1  0
 37124  1  0
 38125  1  0
 38126  1  0
 39127  1  0
 39128  1  0
 40129  1  0
 40130  1  0
 41131  1  0
 41132  1  0
 41133  1  0
 42134  1  0
 42135  1  0
 43136  1  0
 44137  1  0
 45138  1  0
 45139  1  0
 52140  1  0
 52141  1  0
 52142  1  0
 53143  1  0
 53144  1  0
 54145  1  0
 54146  1  0
 55147  1  0
 55148  1  0
 56149  1  0
 56150  1  0
 57151  1  0
 57152  1  0
 58153  1  0
 58154  1  0
 59155  1  0
 59156  1  0
 60157  1  0
 60158  1  0
 67159  1  0
 70160  1  0
 70161  1  0
 70162  1  0
 72163  1  0
 75164  1  0
 75165  1  0
 75166  1  0
 77167  1  0
 77168  1  0
 77169  1  0
 78170  1  0
 78171  1  0
 79172  1  0
 79173  1  0
 80174  1  0
 80175  1  0
 81176  1  0
 81177  1  0
 82178  1  0
 82179  1  0
 83180  1  0
 83181  1  0
 84182  1  0
 84183  1  0
 85184  1  0
 85185  1  0
M  END
> <Name>
BR010067

$$$$
BR010068
  SciTegic05062102053D

117117  0  0  1  0            999 V2000
    3.5481    2.8745    4.7250 C   0  0
    3.7676    3.3143    3.4770 C   0  0
    1.6549    1.7642   -1.7819 C   0  0
   -1.7601    3.6972    5.2518 C   0  0
    4.2337    2.4991    7.8829 C   0  0
    1.2973    1.6010    0.6762 C   0  0  2  0  0  0
    0.1570    0.5998    0.9054 C   0  0  2  0  0  0
   -1.1543    1.2939    1.2913 C   0  0  1  0  0  0
   -0.9791    2.4158    2.3289 C   0  0  1  0  0  0
    1.3696    2.6111    1.8278 C   0  0  2  0  0  0
    1.3814    2.6184   -2.9752 C   0  0
   -1.3509    4.8189    6.1477 C   0  0
    5.8587   -2.3510   10.5481 C   0  0
   -3.5354    7.5525   -8.2706 C   0  0
    4.2753    1.7471   10.6366 C   0  0
    5.1485    4.0630   11.0644 C   0  0
    2.8668    3.7521   10.0617 C   0  0
    4.4841    1.9737    5.4618 C   0  0
    2.8310    4.2121    2.7366 C   0  0
   -0.8722    1.9115    3.7668 C   0  0
    5.0415   -3.0383    9.4647 C   0  0
   -4.2201    6.5149   -7.3940 C   0  0
    4.6356   -2.0562    8.3655 C   0  0
   -3.2173    5.8052   -6.4839 C   0  0
    3.8870   -2.7164    7.2036 C   0  0
   -3.8684    4.8130   -5.5156 C   0  0
    3.5027   -1.7914    6.0448 C   0  0
   -2.9191    4.1112   -4.5395 C   0  0
    2.7781   -2.5110    4.9054 C   0  0
   -3.6290    3.1502   -3.5838 C   0  0
    2.4472   -1.5472    3.7631 C   0  0
   -2.6389    2.5027   -2.6123 C   0  0
    1.7480   -2.2724    2.6095 C   0  0
   -3.3527    1.5629   -1.6362 C   0  0
    1.3848   -1.3274    1.4706 C   0  0
   -2.3832    0.8858   -0.6751 C   0  0
    4.2870    3.1953   10.1495 C   0  0
    1.1479    2.2696   -0.5997 N   0  0
   -0.7037    3.0133    4.6537 N   0  0
    4.8981    2.6201    6.6747 N   0  0
    2.2798    0.7189   -1.9176 O   0  0
   -2.9505    3.4492    5.0994 O   0  0
    3.2204    1.8347    8.0735 O   0  0
    0.1191    3.2747    1.9986 O   0  0
    4.8727    3.2319    8.8432 O   0  0
    0.5232   -0.3035    1.9465 O   0  0
   -1.7091    1.8641    0.1020 O   0  0
    2.4062    3.5525    1.5538 O   0  0
    2.6361    3.1673    5.2401 H   0  0
    4.6775    3.0208    2.9593 H   0  0
    2.2385    1.0487    0.6174 H   0  0
    0.0042   -0.0280   -0.0002 H   0  0
   -1.8708    0.5434    1.6501 H   0  0
   -1.9232    3.0556    2.3005 H   0  0
    1.6196    2.1029    2.7524 H   0  0
    2.1761    3.3608   -3.1520 H   0  0
    1.3182    2.0323   -3.9062 H   0  0
    0.4461    3.1992   -2.9347 H   0  0
   -1.2670    5.7771    5.6103 H   0  0
   -2.0795    5.0002    6.9541 H   0  0
   -0.3828    4.6864    6.6567 H   0  0
    6.7557   -1.8972   10.1154 H   0  0
    5.2793   -1.5601   11.0349 H   0  0
    6.1752   -3.0666   11.3136 H   0  0
   -3.0197    8.2919   -7.6500 H   0  0
   -2.7949    7.0849   -8.9273 H   0  0
   -4.2637    8.0807   -8.8943 H   0  0
    3.6580    1.1209    9.9824 H   0  0
    5.2848    1.3247   10.6707 H   0  0
    3.8359    1.6749   11.6381 H   0  0
    5.1598    5.1030   10.7187 H   0  0
    6.1906    3.7237   11.0564 H   0  0
    4.7859    4.0450   12.0973 H   0  0
    2.8750    4.7909    9.7123 H   0  0
    2.2441    3.1633    9.3804 H   0  0
    2.3903    3.7616   11.0486 H   0  0
    3.9827    1.0393    5.7302 H   0  0
    5.3833    1.7354    4.8856 H   0  0
    1.9473    4.4684    3.3294 H   0  0
    3.3473    5.1352    2.4556 H   0  0
   -0.0144    1.2560    3.8428 H   0  0
   -1.7799    1.3815    4.0229 H   0  0
    4.1527   -3.4818    9.9263 H   0  0
    5.6304   -3.8566    9.0347 H   0  0
   -4.7262    5.7905   -8.0410 H   0  0
   -4.9897    7.0072   -6.7885 H   0  0
    4.0306   -1.2482    8.7926 H   0  0
    5.5376   -1.5808    7.9595 H   0  0
   -2.4587    5.2970   -7.0903 H   0  0
   -2.6808    6.5553   -5.8889 H   0  0
    2.9725   -3.1826    7.5914 H   0  0
    4.5063   -3.5339    6.8135 H   0  0
   -4.3955    4.0458   -6.0966 H   0  0
   -4.6371    5.3446   -4.9410 H   0  0
    2.8500   -1.0042    6.4432 H   0  0
    4.3933   -1.2833    5.6576 H   0  0
   -2.1825    3.5505   -5.1291 H   0  0
   -2.3513    4.8538   -3.9673 H   0  0
    1.8534   -2.9622    5.2848 H   0  0
    3.4025   -3.3235    4.5172 H   0  0
   -4.1414    2.3705   -4.1601 H   0  0
   -4.3927    3.6871   -3.0101 H   0  0
    1.7998   -0.7442    4.1359 H   0  0
    3.3709   -1.0778    3.4043 H   0  0
   -1.8854    1.9400   -3.1766 H   0  0
   -2.1093    3.2860   -2.0572 H   0  0
    2.4126   -3.0579    2.2300 H   0  0
    0.8361   -2.7567    2.9773 H   0  0
   -4.0877    2.1399   -1.0620 H   0  0
   -3.8971    0.7939   -2.1963 H   0  0
    2.2892   -0.8576    1.0713 H   0  0
    0.8813   -1.8649    0.6605 H   0  0
   -2.9302    0.2244    0.0041 H   0  0
   -1.6406    0.2938   -1.2196 H   0  0
    0.6462    3.1524   -0.6271 H   0  0
    0.2513    3.3213    4.8645 H   0  0
    5.7333    3.2045    6.6443 H   0  0
  1  2  2  0
  1 18  1  0
  2 19  1  0
  3 11  1  0
  3 38  1  0
  3 41  2  0
  4 12  1  0
  4 39  1  0
  4 42  2  0
  5 40  1  0
  5 43  2  0
  5 45  1  0
  6  7  1  0
  6 10  1  0
  6 38  1  0
  7  8  1  0
  7 46  1  0
  8  9  1  0
  8 47  1  0
  9 20  1  0
  9 44  1  0
 10 44  1  0
 10 48  1  0
 13 21  1  0
 14 22  1  0
 15 37  1  0
 16 37  1  0
 17 37  1  0
 18 40  1  0
 19 48  1  0
 20 39  1  0
 21 23  1  0
 22 24  1  0
 23 25  1  0
 24 26  1  0
 25 27  1  0
 26 28  1  0
 27 29  1  0
 28 30  1  0
 29 31  1  0
 30 32  1  0
 31 33  1  0
 32 34  1  0
 33 35  1  0
 34 36  1  0
 35 46  1  0
 36 47  1  0
 37 45  1  0
  1 49  1  0
  2 50  1  0
  6 51  1  0
  7 52  1  0
  8 53  1  0
  9 54  1  0
 10 55  1  0
 11 56  1  0
 11 57  1  0
 11 58  1  0
 12 59  1  0
 12 60  1  0
 12 61  1  0
 13 62  1  0
 13 63  1  0
 13 64  1  0
 14 65  1  0
 14 66  1  0
 14 67  1  0
 15 68  1  0
 15 69  1  0
 15 70  1  0
 16 71  1  0
 16 72  1  0
 16 73  1  0
 17 74  1  0
 17 75  1  0
 17 76  1  0
 18 77  1  0
 18 78  1  0
 19 79  1  0
 19 80  1  0
 20 81  1  0
 20 82  1  0
 21 83  1  0
 21 84  1  0
 22 85  1  0
 22 86  1  0
 23 87  1  0
 23 88  1  0
 24 89  1  0
 24 90  1  0
 25 91  1  0
 25 92  1  0
 26 93  1  0
 26 94  1  0
 27 95  1  0
 27 96  1  0
 28 97  1  0
 28 98  1  0
 29 99  1  0
 29100  1  0
 30101  1  0
 30102  1  0
 31103  1  0
 31104  1  0
 32105  1  0
 32106  1  0
 33107  1  0
 33108  1  0
 34109  1  0
 34110  1  0
 35111  1  0
 35112  1  0
 36113  1  0
 36114  1  0
 38115  1  0
 39116  1  0
 40117  1  0
M  END
> <Name>
BR010068

$$$$
BR010069
  SciTegic05062102053D

 26 25  0  0  0  0            999 V2000
   -2.4405   -4.6225    5.3122 C   0  0
   -2.1813   -3.3870    5.7549 C   0  0
   -1.1121   -1.3679    3.4454 C   0  0
   -0.4645   -0.0646    0.9894 C   0  0
    1.6273    0.6910    2.1567 C   0  0
    1.2036   -1.7604    1.8118 C   0  0
   -2.7531   -2.1477    5.1482 C   0  0
    0.5609   -0.3988    2.0719 C   0  0
   -1.6673   -1.3034    4.7060 N   0  0
   -1.4558   -2.1318    2.5494 O   0  0
   -0.1082   -0.4451    3.3327 O   0  0
   -1.9987   -5.4843    5.8004 H   0  0
   -3.0911   -4.7962    4.4622 H   0  0
   -1.5268   -3.2699    6.6151 H   0  0
   -1.2317   -0.8445    0.9253 H   0  0
   -0.9578    0.8935    1.1830 H   0  0
    0.0103   -0.0162    0.0027 H   0  0
    2.3651    0.4554    2.9322 H   0  0
    1.1816    1.6524    2.4367 H   0  0
    2.1531    0.8168    1.2047 H   0  0
    1.9391   -2.0003    2.5882 H   0  0
    0.4566   -2.5604    1.7845 H   0  0
    1.7476   -1.7592    0.8603 H   0  0
   -3.3404   -1.6062    5.8962 H   0  0
   -3.4024   -2.3635    4.2937 H   0  0
   -1.2918   -0.6242    5.3605 H   0  0
  1  2  2  0
  2  7  1  0
  3  9  1  0
  3 10  2  0
  3 11  1  0
  4  8  1  0
  5  8  1  0
  6  8  1  0
  7  9  1  0
  8 11  1  0
  1 12  1  0
  1 13  1  0
  2 14  1  0
  4 15  1  0
  4 16  1  0
  4 17  1  0
  5 18  1  0
  5 19  1  0
  5 20  1  0
  6 21  1  0
  6 22  1  0
  6 23  1  0
  7 24  1  0
  7 25  1  0
  9 26  1  0
M  END
> <Name>
BR010069

$$$$
BR010070
  SciTegic05062102053D

 30 30  0  0  0  0            999 V2000
    1.8851   -1.0363   -0.1124 C   0  0
    2.8783   -1.6520    2.0022 C   0  0
    0.8066   -0.4630    0.5610 C   0  0
    1.7997   -1.0786    2.6757 C   0  0
    2.9210   -1.6309    0.6081 C   0  0
    0.7638   -0.4841    1.9551 C   0  0
    5.0104   -4.4291   -1.1439 C   0  0
   -0.7740    2.4022    5.5200 C   0  0
    4.0745   -2.2433   -0.1117 C   0  0
    3.8496   -3.7224   -0.4362 C   0  0
   -0.9993    1.7636    4.1612 C   0  0
   -0.0308    0.6188    3.9064 C   0  0
    4.8137   -5.6618   -1.3504 O   0  5
    6.0112   -3.7198   -1.4373 O   0  0
   -0.2881    0.0765    2.6120 O   0  0
    1.9102   -1.0154   -1.1986 H   0  0
    3.6809   -2.1132    2.5719 H   0  0
    0.0027   -0.0010   -0.0060 H   0  0
    1.7724   -1.0980    3.7615 H   0  0
   -0.8765    1.6640    6.3218 H   0  0
    0.2327    2.8279    5.5773 H   0  0
   -1.4938    3.2070    5.6994 H   0  0
    4.2728   -1.6923   -1.0442 H   0  0
    4.9923   -2.1376    0.4873 H   0  0
    2.9619   -3.8270   -1.0734 H   0  0
    3.6420   -4.2739    0.4900 H   0  0
   -0.8923    2.5184    3.3730 H   0  0
   -2.0301    1.3966    4.0885 H   0  0
    1.0058    0.9694    3.9375 H   0  0
   -0.1604   -0.1752    4.6488 H   0  0
  1  3  1  0
  1  5  2  0
  2  4  2  0
  2  5  1  0
  3  6  2  0
  4  6  1  0
  5  9  1  0
  6 15  1  0
  7 10  1  0
  7 13  1  0
  7 14  2  0
  8 11  1  0
  9 10  1  0
 11 12  1  0
 12 15  1  0
  1 16  1  0
  2 17  1  0
  3 18  1  0
  4 19  1  0
  8 20  1  0
  8 21  1  0
  8 22  1  0
  9 23  1  0
  9 24  1  0
 10 25  1  0
 10 26  1  0
 11 27  1  0
 11 28  1  0
 12 29  1  0
 12 30  1  0
M  CHG  1  13  -1
M  END
> <Name>
BR010070

$$$$
BR010071
  SciTegic05062102053D

 22 22  0  0  0  0            999 V2000
    7.0378   -5.4644    0.6863 C   0  0
    7.5127   -6.4668    1.5319 C   0  0
    5.6935   -5.0945    0.7294 C   0  0
    5.2991   -6.7298    2.4635 C   0  0
    6.6434   -7.0996    2.4205 C   0  0
    4.8242   -5.7273    1.6180 C   0  0
    1.8680   -2.6203    2.9237 C   0  0
    7.1383   -8.1448    3.3026 C   0  0
    1.9468   -3.6246    2.0438 C   0  0
    3.2002   -4.0134    1.3326 C   0  0
    8.3149   -8.5169    3.3124 O   0  0
    3.5126   -5.3666    1.6602 O   0  0
    7.7147   -4.9718   -0.0055 H   0  0
    8.5622   -6.7466    1.4909 H   0  0
    5.3295   -4.3129    0.0682 H   0  0
    4.6172   -7.2195    3.1551 H   0  0
    0.9358   -2.3713    3.4185 H   0  0
    2.7451   -2.0288    3.1622 H   0  0
    6.4076   -8.6195    3.9931 H   0  0
    1.0477   -4.1927    1.8197 H   0  0
    4.0484   -3.3815    1.6143 H   0  0
    3.0500   -3.9417    0.2509 H   0  0
  1  2  2  0
  1  3  1  0
  2  5  1  0
  3  6  2  0
  4  5  2  0
  4  6  1  0
  5  8  1  0
  6 12  1  0
  7  9  2  0
  8 11  2  0
  9 10  1  0
 10 12  1  0
  1 13  1  0
  2 14  1  0
  3 15  1  0
  4 16  1  0
  7 17  1  0
  7 18  1  0
  8 19  1  0
  9 20  1  0
 10 21  1  0
 10 22  1  0
M  END
> <Name>
BR010071

$$$$
BR010072
  SciTegic05062102053D

 26 26  0  0  0  0            999 V2000
    7.0375   -5.4639    0.6854 C   0  0
    7.5128   -6.4664    1.5308 C   0  0
    5.6932   -5.0942    0.7288 C   0  0
    5.2994   -6.7296    2.4630 C   0  0
    6.6438   -7.0992    2.4196 C   0  0
    4.8242   -5.7270    1.6176 C   0  0
    1.8680   -2.6202    2.9237 C   0  0
    7.1392   -8.1442    3.3013 C   0  0
    8.2758   -8.8517    3.1122 C   0  0
    1.9468   -3.6245    2.0438 C   0  0
    8.7270   -9.9512    4.0855 C   0  0
    3.2001   -4.0134    1.3324 C   0  0
    7.9421  -10.1251    5.0643 O   0  5
    9.8034  -10.5529    3.8142 O   0  0
    3.5124   -5.3664    1.6601 O   0  0
    7.7142   -4.9710   -0.0064 H   0  0
    8.5634   -6.7439    1.4853 H   0  0
    5.3288   -4.3127    0.0675 H   0  0
    4.6140   -7.2177    3.1529 H   0  0
    0.9358   -2.3711    3.4185 H   0  0
    2.7452   -2.0286    3.1620 H   0  0
    6.5138   -8.3730    4.1712 H   0  0
    8.8917   -8.6538    2.2359 H   0  0
    1.0476   -4.1926    1.8198 H   0  0
    4.0482   -3.3814    1.6140 H   0  0
    3.0497   -3.9416    0.2507 H   0  0
  1  2  2  0
  1  3  1  0
  2  5  1  0
  3  6  2  0
  4  5  2  0
  4  6  1  0
  5  8  1  0
  6 15  1  0
  7 10  2  0
  8  9  2  0
  9 11  1  0
 10 12  1  0
 11 13  1  0
 11 14  2  0
 12 15  1  0
  1 16  1  0
  2 17  1  0
  3 18  1  0
  4 19  1  0
  7 20  1  0
  7 21  1  0
  8 22  1  0
  9 23  1  0
 10 24  1  0
 12 25  1  0
 12 26  1  0
M  CHG  1  13  -1
M  END
> <Name>
BR010072

$$$$
BR010073
  SciTegic05062102053D

 30 30  0  0  0  0            999 V2000
    1.8851   -1.0363   -0.1124 C   0  0
    0.8066   -0.4630    0.5610 C   0  0
    2.9210   -1.6309    0.6081 C   0  0
    1.7997   -1.0786    2.6757 C   0  0
    0.7638   -0.4841    1.9551 C   0  0
    2.8783   -1.6520    2.0022 C   0  0
   -2.7638   -0.2943    3.6240 C   0  0
    4.1986   -4.6454    5.5660 C   0  0
   -0.3892    0.1293    2.6750 C   0  0
   -1.5276   -0.8643    2.9206 C   0  0
    4.5060   -3.9662    4.2435 C   0  0
    3.5534   -2.8138    3.9644 C   0  0
   -3.7060   -1.1270    3.7647 O   0  5
   -2.7068    0.9148    3.9786 O   0  0
    3.8889   -2.2327    2.7053 O   0  0
    1.9181   -1.0203   -1.1978 H   0  0
    0.0044   -0.0017   -0.0089 H   0  0
    3.7583   -2.0757    0.0777 H   0  0
    1.7692   -1.0964    3.7626 H   0  0
    4.2507   -3.9319    6.3945 H   0  0
    3.1909   -5.0722    5.5485 H   0  0
    4.9072   -5.4556    5.7648 H   0  0
   -0.0545    0.5447    3.6382 H   0  0
   -0.7738    0.9904    2.1068 H   0  0
   -1.1590   -1.7012    3.5278 H   0  0
   -1.8578   -1.2880    1.9633 H   0  0
    4.4486   -4.6968    3.4277 H   0  0
    5.5388   -3.5977    4.2453 H   0  0
    2.5173   -3.1647    3.9212 H   0  0
    3.6360   -2.0427    4.7370 H   0  0
  1  2  2  0
  1  3  1  0
  2  5  1  0
  3  6  2  0
  4  5  2  0
  4  6  1  0
  5  9  1  0
  6 15  1  0
  7 10  1  0
  7 13  1  0
  7 14  2  0
  8 11  1  0
  9 10  1  0
 11 12  1  0
 12 15  1  0
  1 16  1  0
  2 17  1  0
  3 18  1  0
  4 19  1  0
  8 20  1  0
  8 21  1  0
  8 22  1  0
  9 23  1  0
  9 24  1  0
 10 25  1  0
 10 26  1  0
 11 27  1  0
 11 28  1  0
 12 29  1  0
 12 30  1  0
M  CHG  1  13  -1
M  END
> <Name>
BR010073

$$$$
BR010074
  SciTegic05062102053D

 30 30  0  0  0  0            999 V2000
    1.8851   -1.0363   -0.1124 C   0  0
    2.8783   -1.6520    2.0022 C   0  0
    0.8066   -0.4630    0.5610 C   0  0
    1.7997   -1.0786    2.6757 C   0  0
    2.9210   -1.6309    0.6081 C   0  0
    0.7638   -0.4841    1.9551 C   0  0
    5.0000   -4.3574   -1.1803 C   0  0
   -4.0332    0.0057    2.3465 C   0  0
    4.0745   -2.2433   -0.1117 C   0  0
    3.8392   -3.7254   -0.4321 C   0  0
   -2.6567    0.0307    2.9863 C   0  0
   -1.5491    0.0691    1.9445 C   0  0
    6.0237   -3.7449   -1.4667 O   0  0
   -0.2881    0.0765    2.6120 O   0  0
    4.6807   -6.0267   -1.5625 Cl  0  0
    1.9102   -1.0154   -1.1986 H   0  0
    3.6809   -2.1132    2.5719 H   0  0
    0.0027   -0.0010   -0.0060 H   0  0
    1.7724   -1.0980    3.7615 H   0  0
   -4.1814    0.8775    1.7013 H   0  0
   -4.1510   -0.8937    1.7341 H   0  0
   -4.8196    0.0037    3.1079 H   0  0
    4.9962   -2.1367    0.4849 H   0  0
    4.2782   -1.6916   -1.0450 H   0  0
    3.6864   -4.2839    0.4992 H   0  0
    2.9366   -3.8310   -1.0461 H   0  0
   -2.5283   -0.8495    3.6276 H   0  0
   -2.5694    0.9006    3.6483 H   0  0
   -1.5937   -0.8102    1.2939 H   0  0
   -1.6227    0.9714    1.3290 H   0  0
  1  3  1  0
  1  5  2  0
  2  4  2  0
  2  5  1  0
  3  6  2  0
  4  6  1  0
  5  9  1  0
  6 14  1  0
  7 10  1  0
  7 13  2  0
  7 15  1  0
  8 11  1  0
  9 10  1  0
 11 12  1  0
 12 14  1  0
  1 16  1  0
  2 17  1  0
  3 18  1  0
  4 19  1  0
  8 20  1  0
  8 21  1  0
  8 22  1  0
  9 23  1  0
  9 24  1  0
 10 25  1  0
 10 26  1  0
 11 27  1  0
 11 28  1  0
 12 29  1  0
 12 30  1  0
M  END
> <Name>
BR010074

$$$$
BR010075
  SciTegic05062102053D

 53 54  0  0  1  0            999 V2000
    3.4948    6.4416   -2.7253 C   0  0
    1.0895    6.5788   -2.5436 C   0  0
    3.4612    7.3040   -3.8211 C   0  0
    1.0559    7.4412   -3.6394 C   0  0
    2.3089    6.0790   -2.0865 C   0  0
    2.2418    7.8038   -4.2781 C   0  0
    2.2455    2.7343   -0.1466 C   0  0
    2.1295    0.3124    0.3831 C   0  0  1  0  0  0
    0.6978    0.0271    0.8499 C   0  0  1  0  0  0
    0.6234   -1.2689    1.6615 C   0  0  2  0  0  0
    1.3224   -2.4135    0.9242 C   0  0  2  0  0  0
    2.7657   -0.9332   -0.2463 C   0  0  2  0  0  0
    3.7185    8.7680   -8.7830 C   0  0
    2.3450    5.1479   -0.9024 C   0  0
    2.2289    3.6859   -1.3295 C   0  0
    1.3654   -3.6927    1.7547 C   0  0
    2.6861    8.9230   -7.6808 C   0  0
    3.2318    8.4884   -6.3292 C   0  0
    2.1392    1.4151   -0.5553 N   0  0
    2.3405    3.1091    1.0191 O   0  0
    2.6730   -2.0545    0.6318 O   0  0
    0.2605    1.1126    1.6697 O   0  0
   -0.7521   -1.5776    1.8714 O   0  0
    4.1405   -0.6486   -0.5047 O   0  0
    2.0151   -4.6987    0.9993 O   0  0
    2.2094    8.6463   -5.3466 O   0  0
    4.4492    6.0569   -2.3760 H   0  0
    0.1605    6.3016   -2.0521 H   0  0
    4.3885    7.5830   -4.3144 H   0  0
    0.1031    7.8274   -3.9903 H   0  0
    2.7339    0.6497    1.2346 H   0  0
    0.0144   -0.0205   -0.0077 H   0  0
    1.0822   -1.0996    2.6441 H   0  0
    0.7982   -2.6435   -0.0128 H   0  0
    2.2876   -1.1757   -1.2043 H   0  0
    4.6200    9.3475   -8.5601 H   0  0
    4.0075    7.7175   -8.8876 H   0  0
    3.3201    9.1079   -9.7442 H   0  0
    3.2743    5.3069   -0.3401 H   0  0
    1.5346    5.4067   -0.2085 H   0  0
    3.0586    3.4178   -1.9954 H   0  0
    1.2961    3.5255   -1.8845 H   0  0
    0.3519   -4.0171    1.9906 H   0  0
    1.9203   -3.5193    2.6766 H   0  0
    1.7922    8.3357   -7.9228 H   0  0
    2.3545    9.9668   -7.6253 H   0  0
    3.5356    7.4369   -6.3501 H   0  0
    4.0912    9.1015   -6.0394 H   0  0
    2.0276    1.1996   -1.5399 H   0  0
    0.8746    1.1538    2.4178 H   0  0
   -1.1485   -1.6833    0.9927 H   0  0
    4.5163   -1.4494   -0.9005 H   0  0
    2.0305   -5.5019    1.5472 H   0  0
  1  3  1  0
  1  5  2  0
  2  4  2  0
  2  5  1  0
  3  6  2  0
  4  6  1  0
  5 14  1  0
  6 26  1  0
  7 15  1  0
  7 19  1  0
  7 20  2  0
  8  9  1  0
  8 12  1  0
  8 19  1  0
  9 10  1  0
  9 22  1  0
 10 11  1  0
 10 23  1  0
 11 16  1  0
 11 21  1  0
 12 21  1  0
 12 24  1  0
 13 17  1  0
 14 15  1  0
 16 25  1  0
 17 18  1  0
 18 26  1  0
  1 27  1  0
  2 28  1  0
  3 29  1  0
  4 30  1  0
  8 31  1  0
  9 32  1  0
 10 33  1  0
 11 34  1  0
 12 35  1  0
 13 36  1  0
 13 37  1  0
 13 38  1  0
 14 39  1  0
 14 40  1  0
 15 41  1  0
 15 42  1  0
 16 43  1  0
 16 44  1  0
 17 45  1  0
 17 46  1  0
 18 47  1  0
 18 48  1  0
 19 49  1  0
 22 50  1  0
 23 51  1  0
 24 52  1  0
 25 53  1  0
M  END
> <Name>
BR010075

$$$$
BR010076
  SciTegic05062102053D

 28 28  0  0  0  0            999 V2000
   -4.6298   -1.3070    4.5449 C   0  0
   -3.0611   -2.5373    5.9097 C   0  0
   -3.8983   -1.6391    3.4047 C   0  0
   -2.3296   -2.8694    4.7694 C   0  0
   -4.2111   -1.7560    5.7975 C   0  0
   -2.7482   -2.4203    3.5169 C   0  0
    0.9730   -1.6560    1.1365 C   0  0
    0.0484   -2.6125    1.2755 C   0  0
   -5.3159    0.2926    8.8857 C   0  0
   -4.9934   -1.4015    7.0166 C   0  0
   -0.6303   -2.9349    2.5652 C   0  0
   -4.5163   -0.0889    7.6522 C   0  0
   -6.2254   -0.3986    9.3331 O   0  0
   -2.0353   -2.7454    2.4040 O   0  0
   -4.7736    1.8064    9.5557 Cl  0  0
   -5.5244   -0.6978    4.4482 H   0  0
   -2.7273   -2.8915    6.8816 H   0  0
   -4.2297   -1.2864    2.4316 H   0  0
   -1.4349   -3.4785    4.8634 H   0  0
    1.4417   -1.4546    0.1797 H   0  0
    1.2753   -1.0564    1.9881 H   0  0
   -0.2262   -3.2021    0.4046 H   0  0
   -4.9314   -2.2148    7.7591 H   0  0
   -6.0664   -1.3248    6.7724 H   0  0
   -0.2840   -2.2978    3.3851 H   0  0
   -0.4470   -3.9812    2.8290 H   0  0
   -3.4625   -0.1814    7.9413 H   0  0
   -4.6003    0.7258    6.9229 H   0  0
  1  3  1  0
  1  5  2  0
  2  4  2  0
  2  5  1  0
  3  6  2  0
  4  6  1  0
  5 10  1  0
  6 14  1  0
  7  8  2  0
  8 11  1  0
  9 12  1  0
  9 13  2  0
  9 15  1  0
 10 12  1  0
 11 14  1  0
  1 16  1  0
  2 17  1  0
  3 18  1  0
  4 19  1  0
  7 20  1  0
  7 21  1  0
  8 22  1  0
 10 23  1  0
 10 24  1  0
 11 25  1  0
 11 26  1  0
 12 27  1  0
 12 28  1  0
M  END
> <Name>
BR010076

$$$$
BR010077
  SciTegic05062102053D

 19 19  0  0  0  0            999 V2000
    1.8851   -1.0363   -0.1124 C   0  0
    0.8066   -0.4630    0.5610 C   0  0
    2.9210   -1.6309    0.6081 C   0  0
    1.7997   -1.0786    2.6757 C   0  0
    0.7638   -0.4841    1.9551 C   0  0
    2.8783   -1.6520    2.0022 C   0  0
   -0.3608    0.1133    2.6574 C   0  0
   -1.2090    1.0289    2.1372 C   0  0
   -2.3697    1.6234    2.9491 C   0  0
   -2.4507    1.1782    4.1322 O   0  5
   -3.1012    2.4732    2.3687 O   0  0
    3.8890   -2.2321    2.7055 O   0  0
    1.9183   -1.0201   -1.1979 H   0  0
    0.0065   -0.0030   -0.0145 H   0  0
    3.7588   -2.0756    0.0779 H   0  0
    1.7752   -1.0998    3.7633 H   0  0
   -0.4995   -0.2042    3.6966 H   0  0
   -1.0646    1.3743    1.1144 H   0  0
    4.5613   -2.5835    2.1002 H   0  0
  1  2  2  0
  1  3  1  0
  2  5  1  0
  3  6  2  0
  4  5  2  0
  4  6  1  0
  5  7  1  0
  6 12  1  0
  7  8  2  0
  8  9  1  0
  9 10  1  0
  9 11  2  0
  1 13  1  0
  2 14  1  0
  3 15  1  0
  4 16  1  0
  7 17  1  0
  8 18  1  0
 12 19  1  0
M  CHG  1  10  -1
M  END
> <Name>
BR010077

$$$$
BR010078
  SciTegic05062102053D

 21 21  0  0  0  0            999 V2000
    1.8851   -1.0363   -0.1124 C   0  0
    0.8066   -0.4630    0.5610 C   0  0
    2.9210   -1.6309    0.6081 C   0  0
    1.7997   -1.0786    2.6757 C   0  0
    0.7638   -0.4841    1.9551 C   0  0
    2.8783   -1.6520    2.0022 C   0  0
   -1.2924    2.2969    3.7725 C   0  0
   -0.3892    0.1293    2.6750 C   0  0
   -0.1631    1.6083    2.9990 C   0  0
   -1.0521    3.5029    4.0700 O   0  5
   -2.3151    1.6015    4.0208 O   0  0
    3.8889   -2.2327    2.7053 O   0  0
    1.9181   -1.0203   -1.1978 H   0  0
    0.0044   -0.0017   -0.0089 H   0  0
    3.7583   -2.0757    0.0777 H   0  0
    1.7692   -1.0964    3.7626 H   0  0
   -1.3070    0.0242    2.0758 H   0  0
   -0.5880   -0.4214    3.6074 H   0  0
   -0.0120    2.1687    2.0672 H   0  0
    0.7564    1.7185    3.5883 H   0  0
    3.7161   -2.1679    3.6580 H   0  0
  1  2  2  0
  1  3  1  0
  2  5  1  0
  3  6  2  0
  4  5  2  0
  4  6  1  0
  5  8  1  0
  6 12  1  0
  7  9  1  0
  7 10  1  0
  7 11  2  0
  8  9  1  0
  1 13  1  0
  2 14  1  0
  3 15  1  0
  4 16  1  0
  8 17  1  0
  8 18  1  0
  9 19  1  0
  9 20  1  0
 12 21  1  0
M  CHG  1  10  -1
M  END
> <Name>
BR010078

$$$$
BR010079
  SciTegic05062102053D

 28 28  0  0  0  0            999 V2000
    7.0391   -5.4621    0.6810 C   0  0
    7.5157   -6.4651    1.5251 C   0  0
    5.6946   -5.0933    0.7260 C   0  0
    5.3034   -6.7305    2.4590 C   0  0
    6.6479   -7.0993    2.4141 C   0  0
    4.8267   -5.7275    1.6150 C   0  0
    0.6252   -6.8663    0.5435 C   0  0
    1.2593   -6.0587    1.4007 C   0  0
    7.5324  -10.7238    3.5744 C   0  0
    7.1576   -8.1720    3.3161 C   0  0
    2.5763   -6.3768    2.0271 C   0  0
    7.0606   -9.5653    2.6894 C   0  0
    7.3904  -11.8653    3.0475 O   0  5
    8.0013  -10.4186    4.7048 O   0  0
    3.5149   -5.3671    1.6593 O   0  0
    7.7148   -4.9680   -0.0107 H   0  0
    8.5648   -6.7459    1.4826 H   0  0
    5.3295   -4.3114    0.0660 H   0  0
    4.6244   -7.2235    3.1509 H   0  0
   -0.3317   -6.5958    0.1111 H   0  0
    1.0610   -7.8184    0.2610 H   0  0
    0.7918   -5.1153    1.6706 H   0  0
    8.2044   -7.9683    3.5902 H   0  0
    6.6024   -8.1610    4.2667 H   0  0
    2.9639   -7.3480    1.7039 H   0  0
    2.4769   -6.3809    3.1171 H   0  0
    7.6527   -9.5937    1.7654 H   0  0
    6.0199   -9.7685    2.4057 H   0  0
  1  2  2  0
  1  3  1  0
  2  5  1  0
  3  6  2  0
  4  5  2  0
  4  6  1  0
  5 10  1  0
  6 15  1  0
  7  8  2  0
  8 11  1  0
  9 12  1  0
  9 13  1  0
  9 14  2  0
 10 12  1  0
 11 15  1  0
  1 16  1  0
  2 17  1  0
  3 18  1  0
  4 19  1  0
  7 20  1  0
  7 21  1  0
  8 22  1  0
 10 23  1  0
 10 24  1  0
 11 25  1  0
 11 26  1  0
 12 27  1  0
 12 28  1  0
M  CHG  1  13  -1
M  END
> <Name>
BR010079

$$$$
BR010080
  SciTegic05062102053D

 30 30  0  0  0  0            999 V2000
    1.8851   -1.0363   -0.1124 C   0  0
    0.8066   -0.4630    0.5610 C   0  0
    2.9210   -1.6309    0.6081 C   0  0
    1.7997   -1.0786    2.6757 C   0  0
    0.7638   -0.4841    1.9551 C   0  0
    2.8783   -1.6520    2.0022 C   0  0
   -2.6986   -0.2666    3.6635 C   0  0
    4.1986   -4.6454    5.5660 C   0  0
   -0.3892    0.1293    2.6750 C   0  0
   -1.5245   -0.8744    2.9161 C   0  0
    4.5060   -3.9662    4.2435 C   0  0
    3.5534   -2.8138    3.9644 C   0  0
   -2.7355    0.9106    4.0069 O   0  0
    3.8889   -2.2327    2.7053 O   0  0
   -3.9490   -1.4441    3.9549 Cl  0  0
    1.9181   -1.0203   -1.1978 H   0  0
    0.0044   -0.0017   -0.0089 H   0  0
    3.7583   -2.0757    0.0777 H   0  0
    1.7692   -1.0964    3.7626 H   0  0
    4.2507   -3.9319    6.3945 H   0  0
    3.1909   -5.0722    5.5485 H   0  0
    4.9072   -5.4556    5.7648 H   0  0
   -0.7752    0.9940    2.1093 H   0  0
   -0.0569    0.5496    3.6392 H   0  0
   -1.8897   -1.2555    1.9548 H   0  0
   -1.1482   -1.7234    3.4996 H   0  0
    4.4486   -4.6968    3.4277 H   0  0
    5.5388   -3.5977    4.2453 H   0  0
    2.5173   -3.1647    3.9212 H   0  0
    3.6360   -2.0427    4.7370 H   0  0
  1  2  2  0
  1  3  1  0
  2  5  1  0
  3  6  2  0
  4  5  2  0
  4  6  1  0
  5  9  1  0
  6 14  1  0
  7 10  1  0
  7 13  2  0
  7 15  1  0
  8 11  1  0
  9 10  1  0
 11 12  1  0
 12 14  1  0
  1 16  1  0
  2 17  1  0
  3 18  1  0
  4 19  1  0
  8 20  1  0
  8 21  1  0
  8 22  1  0
  9 23  1  0
  9 24  1  0
 10 25  1  0
 10 26  1  0
 11 27  1  0
 11 28  1  0
 12 29  1  0
 12 30  1  0
M  END
> <Name>
BR010080

$$$$
BR010081
  SciTegic05062102053D

 53 54  0  0  1  0            999 V2000
    6.4353    1.3229    4.5485 C   0  0
    6.3381    0.3959    3.5108 C   0  0
    6.4525    2.6885    4.2646 C   0  0
    6.2756    2.2001    1.9051 C   0  0
    6.2583    0.8345    2.1891 C   0  0
    6.3727    3.1270    2.9429 C   0  0
    3.9078    0.7127    0.3010 C   0  0
    1.9229    2.0606    0.9355 C   0  0  2  0  0  0
    1.3967    2.5727    2.2798 C   0  0  2  0  0  0
    0.2658    3.5864    2.0916 C   0  0  1  0  0  0
   -0.7913    3.0433    1.1268 C   0  0  1  0  0  0
    0.7721    1.6382    0.0156 C   0  0  1  0  0  0
    4.4176    6.8347    0.5272 C   0  0
    6.1538   -0.1670    1.0682 C   0  0
    4.6994   -0.5043    0.7456 C   0  0
   -1.8768    4.0704    0.8213 C   0  0
    5.1942    6.3132    1.7229 C   0  0
    5.6828    4.8897    1.5031 C   0  0
    2.8359    0.9558    1.1437 N   0  0
    4.1988    1.3823   -0.6865 O   0  0
   -0.1764    2.6957   -0.1151 O   0  0
    2.4713    3.2045    2.9787 O   0  0
   -0.3112    3.8461    3.3685 O   0  0
    1.3158    1.3287   -1.2670 O   0  0
   -2.8024    3.4933   -0.0816 O   0  0
    6.3889    4.4597    2.6659 O   0  0
    6.4970    0.9813    5.5775 H   0  0
    6.3259   -0.6660    3.7417 H   0  0
    6.5284    3.4054    5.0773 H   0  0
    6.2137    2.5449    0.8755 H   0  0
    2.5198    2.8438    0.4510 H   0  0
    1.0579    1.7370    2.9056 H   0  0
    0.6897    4.5273    1.7178 H   0  0
   -1.2812    2.1567    1.5506 H   0  0
    0.2724    0.7377    0.3957 H   0  0
    5.0286    6.8043   -0.3806 H   0  0
    3.5262    6.2228    0.3571 H   0  0
    4.0944    7.8678    0.6898 H   0  0
    6.6592    0.2272    0.1769 H   0  0
    6.7042   -1.0776    1.3384 H   0  0
    4.2040   -0.9308    1.6268 H   0  0
    4.6518   -1.2541   -0.0541 H   0  0
   -1.4337    4.9561    0.3657 H   0  0
   -2.3948    4.3491    1.7390 H   0  0
    4.5656    6.3519    2.6206 H   0  0
    6.0496    6.9685    1.9261 H   0  0
    4.8419    4.2093    1.3346 H   0  0
    6.3604    4.8373    0.6449 H   0  0
    2.6491    0.3271    1.9169 H   0  0
    2.7714    3.9332    2.4154 H   0  0
   -0.6447    2.9974    3.6988 H   0  0
    0.5686    1.0658   -1.8255 H   0  0
   -3.4827    4.1646   -0.2609 H   0  0
  1  2  1  0
  1  3  2  0
  2  5  2  0
  3  6  1  0
  4  5  1  0
  4  6  2  0
  5 14  1  0
  6 26  1  0
  7 15  1  0
  7 19  1  0
  7 20  2  0
  8  9  1  0
  8 12  1  0
  8 19  1  0
  9 10  1  0
  9 22  1  0
 10 11  1  0
 10 23  1  0
 11 16  1  0
 11 21  1  0
 12 21  1  0
 12 24  1  0
 13 17  1  0
 14 15  1  0
 16 25  1  0
 17 18  1  0
 18 26  1  0
  1 27  1  0
  2 28  1  0
  3 29  1  0
  4 30  1  0
  8 31  1  0
  9 32  1  0
 10 33  1  0
 11 34  1  0
 12 35  1  0
 13 36  1  0
 13 37  1  0
 13 38  1  0
 14 39  1  0
 14 40  1  0
 15 41  1  0
 15 42  1  0
 16 43  1  0
 16 44  1  0
 17 45  1  0
 17 46  1  0
 18 47  1  0
 18 48  1  0
 19 49  1  0
 22 50  1  0
 23 51  1  0
 24 52  1  0
 25 53  1  0
M  END
> <Name>
BR010081

$$$$
BR010082
  SciTegic05062102053D

 26 26  0  0  0  0            999 V2000
   -4.6283   -1.3108    4.5488 C   0  0
   -3.0585   -2.5437    5.9099 C   0  0
   -3.8984   -1.6415    3.4072 C   0  0
   -2.3285   -2.8745    4.7682 C   0  0
   -4.2084   -1.7618    5.8002 C   0  0
   -2.7485   -2.4234    3.5169 C   0  0
   -2.5826   -4.9530   -0.1806 C   0  0
   -4.9695   -1.4168    6.9906 C   0  0
   -6.2599   -1.0146    7.0020 C   0  0
   -2.0445   -3.8212    0.2870 C   0  0
   -6.9614   -0.6906    8.2819 C   0  0
   -2.7615   -2.8638    1.1799 C   0  0
   -6.3758   -0.7838    9.3579 O   0  0
   -2.0362   -2.7462    2.4029 O   0  0
   -8.6308   -0.1835    8.1205 Cl  0  0
   -5.5226   -0.7005    4.4472 H   0  0
   -2.7185   -2.9027    6.8783 H   0  0
   -4.2305   -1.2873    2.4351 H   0  0
   -1.4336   -3.4839    4.8600 H   0  0
   -2.0254   -5.6211   -0.8278 H   0  0
   -3.5985   -5.2275    0.0817 H   0  0
   -4.4414   -1.5162    7.9456 H   0  0
   -6.8365   -0.9214    6.0882 H   0  0
   -1.0271   -3.5700   -0.0016 H   0  0
   -3.7795   -3.1948    1.4083 H   0  0
   -2.8084   -1.8786    0.7054 H   0  0
  1  3  1  0
  1  5  2  0
  2  4  2  0
  2  5  1  0
  3  6  2  0
  4  6  1  0
  5  8  1  0
  6 14  1  0
  7 10  2  0
  8  9  2  0
  9 11  1  0
 10 12  1  0
 11 13  2  0
 11 15  1  0
 12 14  1  0
  1 16  1  0
  2 17  1  0
  3 18  1  0
  4 19  1  0
  7 20  1  0
  7 21  1  0
  8 22  1  0
  9 23  1  0
 10 24  1  0
 12 25  1  0
 12 26  1  0
M  END
> <Name>
BR010082

$$$$
BR010083
  SciTegic05062102053D

 49 50  0  0  1  0            999 V2000
    8.6768   -7.9679    5.3025 C   0  0
    7.8432   -8.3925    6.3371 C   0  0
    8.2180   -7.0300    4.3775 C   0  0
    6.0920   -6.9415    5.5218 C   0  0
    6.5508   -7.8793    6.4468 C   0  0
    6.9256   -6.5168    4.4872 C   0  0
    4.2733   -5.7824    0.9483 C   0  0
    5.6702   -8.3276    7.5400 C   0  0
    4.3338   -8.2152    7.5353 C   0  0
    4.8665   -5.0821    1.9213 C   0  0
    3.5416   -8.7137    8.6956 C   0  0
    1.1913   -8.9066    9.4904 C   0  0  2  0  0  0
    0.7554  -10.3549    9.2483 C   0  0  2  0  0  0
   -0.4476  -10.7324   10.1156 C   0  0  1  0  0  0
   -1.5504   -9.6772    9.9981 C   0  0  1  0  0  0
   -0.0080   -7.9534    9.4481 C   0  0  1  0  0  0
    5.0782   -5.5945    3.3071 C   0  0
   -2.7195   -9.9563   10.9374 C   0  0
    2.1851   -8.5132    8.5130 N   0  0
    4.0638   -9.2336    9.6763 O   0  0
   -1.0272   -8.3935   10.3440 O   0  0
    1.8467  -11.2191    9.5714 O   0  0
   -0.9246  -12.0026    9.6800 O   0  0
    0.4384   -6.6557    9.8397 O   0  0
   -3.6840   -8.9327   10.7734 O   0  0
    6.4777   -5.6017    3.5847 O   0  0
    9.6831   -8.3673    5.2172 H   0  0
    8.2149   -9.1244    7.0505 H   0  0
    8.8719   -6.7032    3.5735 H   0  0
    5.0853   -6.5357    5.5991 H   0  0
    4.1396   -5.3713   -0.0462 H   0  0
    3.9103   -6.7868    1.1373 H   0  0
    6.1782   -8.7933    8.3814 H   0  0
    3.7952   -7.7775    6.7016 H   0  0
    5.2113   -4.0748    1.7023 H   0  0
    1.6942   -8.8310   10.4629 H   0  0
    0.5248  -10.5166    8.1873 H   0  0
   -0.1166  -10.8378   11.1568 H   0  0
   -1.9459   -9.6449    8.9743 H   0  0
   -0.4163   -7.8766    8.4320 H   0  0
    4.6917   -6.6105    3.4357 H   0  0
    4.5829   -4.9344    4.0260 H   0  0
   -2.3732   -9.9626   11.9710 H   0  0
   -3.1706  -10.9186   10.6949 H   0  0
    1.8721   -8.0704    7.6553 H   0  0
    2.0509  -11.0625   10.5053 H   0  0
   -1.1751  -11.8992    8.7488 H   0  0
   -0.3376   -6.0762    9.8038 H   0  0
   -4.4173   -9.1316   11.3803 H   0  0
  1  2  1  0
  1  3  2  0
  2  5  2  0
  3  6  1  0
  4  5  1  0
  4  6  2  0
  5  8  1  0
  6 26  1  0
  7 10  2  0
  8  9  2  0
  9 11  1  0
 10 17  1  0
 11 19  1  0
 11 20  2  0
 12 13  1  0
 12 16  1  0
 12 19  1  0
 13 14  1  0
 13 22  1  0
 14 15  1  0
 14 23  1  0
 15 18  1  0
 15 21  1  0
 16 21  1  0
 16 24  1  0
 17 26  1  0
 18 25  1  0
  1 27  1  0
  2 28  1  0
  3 29  1  0
  4 30  1  0
  7 31  1  0
  7 32  1  0
  8 33  1  0
  9 34  1  0
 10 35  1  0
 12 36  1  0
 13 37  1  0
 14 38  1  0
 15 39  1  0
 16 40  1  0
 17 41  1  0
 17 42  1  0
 18 43  1  0
 18 44  1  0
 19 45  1  0
 22 46  1  0
 23 47  1  0
 24 48  1  0
 25 49  1  0
M  END
> <Name>
BR010083

$$$$
BR010084
  SciTegic05062102053D

 26 26  0  0  0  0            999 V2000
    7.0375   -5.4639    0.6854 C   0  0
    7.5128   -6.4664    1.5308 C   0  0
    5.6932   -5.0942    0.7288 C   0  0
    5.2994   -6.7296    2.4630 C   0  0
    6.6438   -7.0992    2.4196 C   0  0
    4.8242   -5.7270    1.6176 C   0  0
    1.8680   -2.6202    2.9237 C   0  0
    7.1392   -8.1442    3.3013 C   0  0
    8.4350   -8.3325    3.6368 C   0  0
    1.9468   -3.6245    2.0438 C   0  0
    8.8462   -9.4328    4.5619 C   0  0
    3.2001   -4.0134    1.3324 C   0  0
    8.0092  -10.1945    5.0400 O   0  0
    3.5124   -5.3664    1.6601 O   0  0
   10.5636   -9.5391    4.8923 Cl  0  0
    7.7142   -4.9710   -0.0064 H   0  0
    8.5634   -6.7439    1.4853 H   0  0
    5.3288   -4.3127    0.0675 H   0  0
    4.6140   -7.2177    3.1529 H   0  0
    0.9358   -2.3711    3.4185 H   0  0
    2.7452   -2.0286    3.1620 H   0  0
    6.3827   -8.8096    3.7325 H   0  0
    9.2217   -7.6895    3.2577 H   0  0
    1.0476   -4.1926    1.8198 H   0  0
    4.0482   -3.3814    1.6140 H   0  0
    3.0497   -3.9416    0.2507 H   0  0
  1  2  2  0
  1  3  1  0
  2  5  1  0
  3  6  2  0
  4  5  2  0
  4  6  1  0
  5  8  1  0
  6 14  1  0
  7 10  2  0
  8  9  2  0
  9 11  1  0
 10 12  1  0
 11 13  2  0
 11 15  1  0
 12 14  1  0
  1 16  1  0
  2 17  1  0
  3 18  1  0
  4 19  1  0
  7 20  1  0
  7 21  1  0
  8 22  1  0
  9 23  1  0
 10 24  1  0
 12 25  1  0
 12 26  1  0
M  END
> <Name>
BR010084

$$$$
BR010085
  SciTegic05062102053D

 61 63  0  0  1  0            999 V2000
    7.0987   -4.2087   -9.9689 C   0  0
    8.9455   -3.3972   -8.6393 C   0  0
    6.4115   -4.5525   -8.8047 C   0  0
    8.2583   -3.7409   -7.4751 C   0  0
    8.3657   -3.6312   -9.8862 C   0  0
    6.9913   -4.3185   -7.5578 C   0  0
    9.0822   -3.2726  -11.0998 C   0  0
    0.4788    0.5545   -1.9482 C   0  0  1  0  0  0
    3.1946   -3.8104   -4.5154 C   0  0  1  0  0  0
    0.8838   -0.2837   -0.7353 C   0  0  2  0  0  0
    3.3736   -2.2958   -4.6205 C   0  0  1  0  0  0
    0.6540   -0.2355   -3.2448 C   0  0  2  0  0  0
    4.4801   -4.5469   -4.8926 C   0  0  2  0  0  0
    2.2922   -0.8509   -0.9441 C   0  0  1  0  0  0
    3.9923   -1.9141   -5.9673 C   0  0  1  0  0  0
    5.0556   -4.0230   -6.2082 C   0  0  1  0  0  0
    2.0523   -0.8532   -3.3182 C   0  0  1  0  0  0
   11.1048   -2.3230  -11.9363 C   0  0
    2.7412   -1.7604    0.1933 C   0  0
    4.2972   -0.4222   -6.0605 C   0  0
    8.6467   -3.4428  -12.2463 O   0  0
    2.3325   -1.6237   -2.1504 O   0  0
    5.2271   -2.6088   -6.1508 O   0  0
   -0.8765    0.9704   -1.8046 O   0  0
    2.8471   -4.1334   -3.1679 O   0  0
   -0.0555   -1.3505   -0.5852 O   0  0
    0.4733    0.6579   -4.3432 O   0  0
    4.1797   -5.9357   -5.0233 O   0  0
    4.1533   -1.8653    0.1580 O   0  0
    4.8739   -0.1583   -7.3264 O   0  0
    6.3177   -4.6557   -6.4159 O   0  0
   10.3021   -2.7202  -10.8194 O   0  0
    2.0984   -1.6910   -4.4725 O   0  0
    6.6367   -4.3955  -10.9349 H   0  0
    9.9322   -2.9474   -8.5641 H   0  0
    5.4250   -5.0022   -8.8757 H   0  0
    8.7152   -3.5566   -6.5066 H   0  0
    1.0888    1.4661   -1.9840 H   0  0
    2.3557   -4.1426   -5.1397 H   0  0
    0.8284    0.3270    0.1731 H   0  0
    4.0047   -1.9535   -3.7902 H   0  0
   -0.1221   -1.0060   -3.3290 H   0  0
    5.2153   -4.4532   -4.0833 H   0  0
    3.0146   -0.0291   -1.0319 H   0  0
    3.3092   -2.1657   -6.7894 H   0  0
    4.4098   -4.2929   -7.0535 H   0  0
    2.8161   -0.0757   -3.4459 H   0  0
   12.0464   -1.9003  -11.5774 H   0  0
   10.5634   -1.5823  -12.5302 H   0  0
   11.3136   -3.2000  -12.5537 H   0  0
    2.3042   -2.7523    0.0733 H   0  0
    2.4361   -1.3388    1.1517 H   0  0
    5.0000   -0.1366   -5.2778 H   0  0
    3.3772    0.1530   -5.9566 H   0  0
   -0.9197    1.4955   -0.9903 H   0  0
    3.5804   -3.8242   -2.6154 H   0  0
    0.2306   -1.8581    0.1885 H   0  0
    1.1507    1.3450   -4.2520 H   0  0
    3.5116   -6.0075   -5.7218 H   0  0
    4.4142   -2.4486    0.8908 H   0  0
    5.0590    0.7957   -7.3626 H   0  0
  1  3  2  0
  1  5  1  0
  2  4  1  0
  2  5  2  0
  3  6  1  0
  4  6  2  0
  5  7  1  0
  6 31  1  0
  7 21  2  0
  7 32  1  0
  8 10  1  0
  8 12  1  0
  8 24  1  0
  9 11  1  0
  9 13  1  0
  9 25  1  0
 10 14  1  0
 10 26  1  0
 11 15  1  0
 11 33  1  0
 12 17  1  0
 12 27  1  0
 13 16  1  0
 13 28  1  0
 14 19  1  0
 14 22  1  0
 15 20  1  0
 15 23  1  0
 16 23  1  0
 16 31  1  0
 17 22  1  0
 17 33  1  0
 18 32  1  0
 19 29  1  0
 20 30  1  0
  1 34  1  0
  2 35  1  0
  3 36  1  0
  4 37  1  0
  8 38  1  0
  9 39  1  0
 10 40  1  0
 11 41  1  0
 12 42  1  0
 13 43  1  0
 14 44  1  0
 15 45  1  0
 16 46  1  0
 17 47  1  0
 18 48  1  0
 18 49  1  0
 18 50  1  0
 19 51  1  0
 19 52  1  0
 20 53  1  0
 20 54  1  0
 24 55  1  0
 25 56  1  0
 26 57  1  0
 27 58  1  0
 28 59  1  0
 29 60  1  0
 30 61  1  0
M  END
> <Name>
BR010085

$$$$
BR010086
  SciTegic05062102053D

 60 62  0  0  1  0            999 V2000
    7.0987   -4.2087   -9.9689 C   0  0
    8.9455   -3.3972   -8.6393 C   0  0
    6.4115   -4.5525   -8.8047 C   0  0
    8.2583   -3.7409   -7.4751 C   0  0
    8.3657   -3.6312   -9.8862 C   0  0
    6.9913   -4.3185   -7.5578 C   0  0
    9.0822   -3.2726  -11.0998 C   0  0
    0.4788    0.5545   -1.9482 C   0  0  1  0  0  0
    3.1946   -3.8104   -4.5154 C   0  0  1  0  0  0
    0.8838   -0.2837   -0.7353 C   0  0  2  0  0  0
    3.3736   -2.2958   -4.6205 C   0  0  1  0  0  0
    0.6540   -0.2355   -3.2448 C   0  0  2  0  0  0
    4.4801   -4.5469   -4.8926 C   0  0  2  0  0  0
    2.2922   -0.8509   -0.9441 C   0  0  1  0  0  0
    3.9923   -1.9141   -5.9673 C   0  0  1  0  0  0
    5.0556   -4.0230   -6.2082 C   0  0  1  0  0  0
    2.0523   -0.8532   -3.3182 C   0  0  1  0  0  0
   10.6681   -1.7486  -12.0245 C   0  0
    2.7412   -1.7604    0.1933 C   0  0
    4.2972   -0.4222   -6.0605 C   0  0
    8.9636   -3.8610  -12.1828 O   0  0
    2.3325   -1.6237   -2.1504 O   0  0
    5.2271   -2.6088   -6.1508 O   0  0
   -0.8765    0.9704   -1.8046 O   0  0
    2.8471   -4.1334   -3.1679 O   0  0
   -0.0555   -1.3505   -0.5852 O   0  0
    0.4733    0.6579   -4.3432 O   0  0
    4.1797   -5.9357   -5.0233 O   0  0
    4.1533   -1.8653    0.1580 O   0  0
    6.3177   -4.6557   -6.4159 O   0  0
    9.9068   -2.1994  -10.8989 O   0  0
    2.0984   -1.6910   -4.4725 O   0  0
    5.1140    0.0619   -7.9664 I   0  0
    6.6367   -4.3955  -10.9349 H   0  0
    9.9322   -2.9474   -8.5641 H   0  0
    5.4250   -5.0022   -8.8757 H   0  0
    8.7152   -3.5566   -6.5066 H   0  0
    1.0888    1.4661   -1.9840 H   0  0
    2.3557   -4.1426   -5.1397 H   0  0
    0.8284    0.3270    0.1731 H   0  0
    4.0047   -1.9535   -3.7902 H   0  0
   -0.1221   -1.0060   -3.3290 H   0  0
    5.2153   -4.4532   -4.0833 H   0  0
    3.0146   -0.0291   -1.0319 H   0  0
    3.3092   -2.1657   -6.7894 H   0  0
    4.4098   -4.2929   -7.0535 H   0  0
    2.8161   -0.0757   -3.4459 H   0  0
   11.2806   -0.8924  -11.7317 H   0  0
    9.9905   -1.4657  -12.8340 H   0  0
   11.3174   -2.5598  -12.3622 H   0  0
    2.3042   -2.7523    0.0733 H   0  0
    2.4361   -1.3388    1.1517 H   0  0
    5.0022   -0.1495   -5.2710 H   0  0
    3.3775    0.1441   -5.8923 H   0  0
   -0.9197    1.4955   -0.9903 H   0  0
    3.5804   -3.8242   -2.6154 H   0  0
    0.2306   -1.8581    0.1885 H   0  0
    1.1507    1.3450   -4.2520 H   0  0
    3.5116   -6.0075   -5.7218 H   0  0
    4.4142   -2.4486    0.8908 H   0  0
  1  3  2  0
  1  5  1  0
  2  4  1  0
  2  5  2  0
  3  6  1  0
  4  6  2  0
  5  7  1  0
  6 30  1  0
  7 21  2  0
  7 31  1  0
  8 10  1  0
  8 12  1  0
  8 24  1  0
  9 11  1  0
  9 13  1  0
  9 25  1  0
 10 14  1  0
 10 26  1  0
 11 15  1  0
 11 32  1  0
 12 17  1  0
 12 27  1  0
 13 16  1  0
 13 28  1  0
 14 19  1  0
 14 22  1  0
 15 20  1  0
 15 23  1  0
 16 23  1  0
 16 30  1  0
 17 22  1  0
 17 32  1  0
 18 31  1  0
 19 29  1  0
 20 33  1  0
  1 34  1  0
  2 35  1  0
  3 36  1  0
  4 37  1  0
  8 38  1  0
  9 39  1  0
 10 40  1  0
 11 41  1  0
 12 42  1  0
 13 43  1  0
 14 44  1  0
 15 45  1  0
 16 46  1  0
 17 47  1  0
 18 48  1  0
 18 49  1  0
 18 50  1  0
 19 51  1  0
 19 52  1  0
 20 53  1  0
 20 54  1  0
 24 55  1  0
 25 56  1  0
 26 57  1  0
 27 58  1  0
 28 59  1  0
 29 60  1  0
M  END
> <Name>
BR010086

$$$$
BR010087
  SciTegic05062102053D

 57 59  0  0  1  0            999 V2000
    7.0978   -4.2088   -9.9689 C   0  0
    8.9448   -3.3967   -8.6400 C   0  0
    6.4111   -4.5526   -8.8045 C   0  0
    8.2582   -3.7406   -7.4755 C   0  0
    8.3646   -3.6309   -9.8867 C   0  0
    6.9913   -4.3185   -7.5578 C   0  0
    9.0892   -3.2680  -11.1152 C   0  0
    0.4788    0.5545   -1.9482 C   0  0  1  0  0  0
    3.1946   -3.8104   -4.5154 C   0  0  1  0  0  0
    0.8838   -0.2837   -0.7353 C   0  0  2  0  0  0
    3.3736   -2.2958   -4.6205 C   0  0  1  0  0  0
    0.6540   -0.2355   -3.2448 C   0  0  2  0  0  0
    4.4801   -4.5469   -4.8926 C   0  0  2  0  0  0
    2.2922   -0.8509   -0.9441 C   0  0  1  0  0  0
    3.9923   -1.9141   -5.9673 C   0  0  1  0  0  0
    5.0556   -4.0230   -6.2082 C   0  0  1  0  0  0
    2.0523   -0.8532   -3.3182 C   0  0  1  0  0  0
    2.7412   -1.7604    0.1933 C   0  0
    4.2972   -0.4222   -6.0605 C   0  0
   10.2573   -2.7355  -11.0116 O   0  5
    8.5313   -3.4945  -12.2538 O   0  0
    2.3325   -1.6237   -2.1504 O   0  0
    5.2271   -2.6088   -6.1508 O   0  0
   -0.8765    0.9704   -1.8046 O   0  0
    2.8471   -4.1334   -3.1679 O   0  0
   -0.0555   -1.3505   -0.5852 O   0  0
    0.4733    0.6579   -4.3432 O   0  0
    4.1797   -5.9357   -5.0233 O   0  0
    4.1533   -1.8653    0.1580 O   0  0
    4.8739   -0.1583   -7.3264 O   0  0
    6.3177   -4.6557   -6.4159 O   0  0
    2.0984   -1.6910   -4.4725 O   0  0
    6.6366   -4.3952  -10.9353 H   0  0
    9.9314   -2.9469   -8.5650 H   0  0
    5.4245   -5.0025   -8.8744 H   0  0
    8.7159   -3.5556   -6.5076 H   0  0
    1.0888    1.4661   -1.9840 H   0  0
    2.3557   -4.1426   -5.1397 H   0  0
    0.8284    0.3270    0.1731 H   0  0
    4.0047   -1.9535   -3.7902 H   0  0
   -0.1221   -1.0060   -3.3290 H   0  0
    5.2153   -4.4532   -4.0833 H   0  0
    3.0146   -0.0291   -1.0319 H   0  0
    3.3092   -2.1657   -6.7894 H   0  0
    4.4098   -4.2929   -7.0535 H   0  0
    2.8161   -0.0757   -3.4459 H   0  0
    2.3042   -2.7523    0.0733 H   0  0
    2.4361   -1.3388    1.1517 H   0  0
    5.0000   -0.1366   -5.2778 H   0  0
    3.3772    0.1530   -5.9566 H   0  0
   -0.9197    1.4955   -0.9903 H   0  0
    3.5804   -3.8242   -2.6154 H   0  0
    0.2306   -1.8581    0.1885 H   0  0
    1.1507    1.3450   -4.2520 H   0  0
    3.5116   -6.0075   -5.7218 H   0  0
    4.4142   -2.4486    0.8908 H   0  0
    5.0590    0.7957   -7.3626 H   0  0
  1  3  2  0
  1  5  1  0
  2  4  1  0
  2  5  2  0
  3  6  1  0
  4  6  2  0
  5  7  1  0
  6 31  1  0
  7 20  1  0
  7 21  2  0
  8 10  1  0
  8 12  1  0
  8 24  1  0
  9 11  1  0
  9 13  1  0
  9 25  1  0
 10 14  1  0
 10 26  1  0
 11 15  1  0
 11 32  1  0
 12 17  1  0
 12 27  1  0
 13 16  1  0
 13 28  1  0
 14 18  1  0
 14 22  1  0
 15 19  1  0
 15 23  1  0
 16 23  1  0
 16 31  1  0
 17 22  1  0
 17 32  1  0
 18 29  1  0
 19 30  1  0
  1 33  1  0
  2 34  1  0
  3 35  1  0
  4 36  1  0
  8 37  1  0
  9 38  1  0
 10 39  1  0
 11 40  1  0
 12 41  1  0
 13 42  1  0
 14 43  1  0
 15 44  1  0
 16 45  1  0
 17 46  1  0
 18 47  1  0
 18 48  1  0
 19 49  1  0
 19 50  1  0
 24 51  1  0
 25 52  1  0
 26 53  1  0
 27 54  1  0
 28 55  1  0
 29 56  1  0
 30 57  1  0
M  CHG  1  20  -1
M  END
> <Name>
BR010087

$$$$
BR010088
  SciTegic05062102053D

 43 44  0  0  1  0            999 V2000
    4.9766   -3.9495   -4.2530 C   0  0
    3.0855   -5.1545   -5.1521 C   0  0
    4.1977   -2.7961   -4.1601 C   0  0
    2.3065   -4.0012   -5.0593 C   0  0
    4.4206   -5.1286   -4.7490 C   0  0
    2.8626   -2.8220   -4.5633 C   0  0
    5.2325   -6.3313   -4.8457 C   0  0
    0.7233    0.6893   -1.9268 C   0  0  1  0  0  0
    0.1626   -0.3970   -1.0083 C   0  0  2  0  0  0
    1.0679    0.1207   -3.3030 C   0  0  2  0  0  0
    1.1199   -1.5934   -0.9760 C   0  0  1  0  0  0
    1.9375   -1.1315   -3.1696 C   0  0  1  0  0  0
    5.2093   -8.6272   -5.4942 C   0  0
   -0.1957    2.6091   -0.9306 C   0  0
    0.5950   -2.7518   -0.1363 C   0  0
    6.4229   -6.4012   -4.5121 O   0  0
    1.3267   -2.0883   -2.3049 O   0  0
   -1.1121   -0.8043   -1.5106 O   0  0
    1.7818    1.1166   -4.0347 O   0  0
    1.6836   -3.5897    0.2091 O   0  0
    2.0984   -1.6910   -4.4725 O   0  0
    4.5171   -7.3821   -5.3516 O   0  0
   -0.2303    1.7405   -2.0532 O   0  0
    6.0158   -3.9175   -3.9355 H   0  0
    2.6427   -6.0684   -5.5398 H   0  0
    4.6366   -1.8807   -3.7730 H   0  0
    1.2671   -4.0273   -5.3751 H   0  0
    1.6205    1.1273   -1.4713 H   0  0
   -0.0004    0.0130   -0.0050 H   0  0
    0.1516   -0.0940   -3.8664 H   0  0
    2.0891   -1.2829   -0.5645 H   0  0
    2.9371   -0.8744   -2.7968 H   0  0
    4.5298   -9.3776   -5.9056 H   0  0
    5.5811   -8.9521   -4.5192 H   0  0
    6.0520   -8.4893   -6.1759 H   0  0
   -0.9370    3.4016   -1.0593 H   0  0
    0.8032    3.0420   -0.8344 H   0  0
   -0.4307    2.0362   -0.0305 H   0  0
   -0.1340   -3.3273   -0.7079 H   0  0
    0.1302   -2.3729    0.7745 H   0  0
   -1.4359   -1.4895   -0.9074 H   0  0
    2.5803    1.3137   -3.5221 H   0  0
    1.3240   -4.3187    0.7426 H   0  0
  1  3  2  0
  1  5  1  0
  2  4  1  0
  2  5  2  0
  3  6  1  0
  4  6  2  0
  5  7  1  0
  6 21  1  0
  7 16  2  0
  7 22  1  0
  8  9  1  0
  8 10  1  0
  8 23  1  0
  9 11  1  0
  9 18  1  0
 10 12  1  0
 10 19  1  0
 11 15  1  0
 11 17  1  0
 12 17  1  0
 12 21  1  0
 13 22  1  0
 14 23  1  0
 15 20  1  0
  1 24  1  0
  2 25  1  0
  3 26  1  0
  4 27  1  0
  8 28  1  0
  9 29  1  0
 10 30  1  0
 11 31  1  0
 12 32  1  0
 13 33  1  0
 13 34  1  0
 13 35  1  0
 14 36  1  0
 14 37  1  0
 14 38  1  0
 15 39  1  0
 15 40  1  0
 18 41  1  0
 19 42  1  0
 20 43  1  0
M  END
> <Name>
BR010088

$$$$
BR010089
  SciTegic05062102053D

 58 59  0  0  1  0            999 V2000
    4.9766   -3.9495   -4.2530 C   0  0
    3.0855   -5.1545   -5.1521 C   0  0
    4.1977   -2.7961   -4.1601 C   0  0
    2.3065   -4.0012   -5.0593 C   0  0
    4.4206   -5.1286   -4.7490 C   0  0
    2.8626   -2.8220   -4.5633 C   0  0
    5.2325   -6.3313   -4.8457 C   0  0
   -1.2220    3.6943   -1.1235 C   0  0
    0.7233    0.6893   -1.9268 C   0  0  1  0  0  0
    0.1626   -0.3970   -1.0083 C   0  0  2  0  0  0
    1.0679    0.1207   -3.3030 C   0  0  2  0  0  0
    1.1199   -1.5934   -0.9760 C   0  0  1  0  0  0
    1.9375   -1.1315   -3.1696 C   0  0  1  0  0  0
   -3.5506    5.0331   -0.1788 C   0  0
   -1.9745    6.3948    1.2250 C   0  0
   -1.8117    6.4819   -1.2798 C   0  0
    5.2093   -8.6272   -5.4942 C   0  0
   -0.1957    2.6091   -0.9306 C   0  0
    0.5950   -2.7518   -0.1363 C   0  0
   -2.1377    5.6049   -0.0717 C   0  0
    6.4229   -6.4012   -4.5121 O   0  0
   -1.9460    3.8086   -2.1032 O   0  0
    1.3267   -2.0883   -2.3049 O   0  0
   -1.1121   -0.8043   -1.5106 O   0  0
    1.7818    1.1166   -4.0347 O   0  0
    1.6836   -3.5897    0.2091 O   0  0
    2.0984   -1.6910   -4.4725 O   0  0
    4.5171   -7.3821   -5.3516 O   0  0
   -1.2080    4.5173   -0.0340 O   0  0
   -0.2303    1.7405   -2.0532 O   0  0
    6.0158   -3.9175   -3.9355 H   0  0
    2.6427   -6.0684   -5.5398 H   0  0
    4.6366   -1.8807   -3.7730 H   0  0
    1.2671   -4.0273   -5.3751 H   0  0
    1.6205    1.1273   -1.4713 H   0  0
   -0.0004    0.0130   -0.0050 H   0  0
    0.1516   -0.0940   -3.8664 H   0  0
    2.0891   -1.2829   -0.5645 H   0  0
    2.9371   -0.8744   -2.7968 H   0  0
   -3.6718    4.4654   -1.1083 H   0  0
   -3.7842    4.3744    0.6639 H   0  0
   -4.2962    5.8360   -0.2076 H   0  0
   -0.9621    6.8068    1.3061 H   0  0
   -2.1145    5.7462    2.0974 H   0  0
   -2.6908    7.2203    1.2881 H   0  0
   -0.7983    6.8921   -1.2032 H   0  0
   -1.8878    5.9215   -2.2172 H   0  0
   -2.4900    7.3412   -1.3318 H   0  0
    4.5298   -9.3776   -5.9056 H   0  0
    5.5811   -8.9521   -4.5192 H   0  0
    6.0520   -8.4893   -6.1759 H   0  0
   -0.4355    2.0351   -0.0316 H   0  0
    0.7996    3.0557   -0.8584 H   0  0
   -0.1340   -3.3273   -0.7079 H   0  0
    0.1302   -2.3729    0.7745 H   0  0
   -1.4359   -1.4895   -0.9074 H   0  0
    2.5803    1.3137   -3.5221 H   0  0
    1.3240   -4.3187    0.7426 H   0  0
  1  3  2  0
  1  5  1  0
  2  4  1  0
  2  5  2  0
  3  6  1  0
  4  6  2  0
  5  7  1  0
  6 27  1  0
  7 21  2  0
  7 28  1  0
  8 18  1  0
  8 22  2  0
  8 29  1  0
  9 10  1  0
  9 11  1  0
  9 30  1  0
 10 12  1  0
 10 24  1  0
 11 13  1  0
 11 25  1  0
 12 19  1  0
 12 23  1  0
 13 23  1  0
 13 27  1  0
 14 20  1  0
 15 20  1  0
 16 20  1  0
 17 28  1  0
 18 30  1  0
 19 26  1  0
 20 29  1  0
  1 31  1  0
  2 32  1  0
  3 33  1  0
  4 34  1  0
  9 35  1  0
 10 36  1  0
 11 37  1  0
 12 38  1  0
 13 39  1  0
 14 40  1  0
 14 41  1  0
 14 42  1  0
 15 43  1  0
 15 44  1  0
 15 45  1  0
 16 46  1  0
 16 47  1  0
 16 48  1  0
 17 49  1  0
 17 50  1  0
 17 51  1  0
 18 52  1  0
 18 53  1  0
 19 54  1  0
 19 55  1  0
 24 56  1  0
 25 57  1  0
 26 58  1  0
M  END
> <Name>
BR010089

$$$$
BR010090
  SciTegic05062102053D

 45 46  0  0  1  0            999 V2000
    4.9766   -3.9495   -4.2530 C   0  0
    3.0855   -5.1545   -5.1521 C   0  0
    4.1977   -2.7961   -4.1601 C   0  0
    2.3065   -4.0012   -5.0593 C   0  0
    4.4206   -5.1286   -4.7490 C   0  0
    2.8626   -2.8220   -4.5633 C   0  0
    5.2325   -6.3313   -4.8457 C   0  0
   -1.2415    3.6883   -1.1600 C   0  0
    0.7233    0.6893   -1.9268 C   0  0  1  0  0  0
    0.1626   -0.3970   -1.0083 C   0  0  2  0  0  0
    1.0679    0.1207   -3.3030 C   0  0  2  0  0  0
    1.1199   -1.5934   -0.9760 C   0  0  1  0  0  0
    1.9375   -1.1315   -3.1696 C   0  0  1  0  0  0
    5.2093   -8.6272   -5.4942 C   0  0
   -0.1957    2.6091   -0.9306 C   0  0
    0.5950   -2.7518   -0.1363 C   0  0
   -2.4235    3.2669   -1.3062 O   0  5
    6.4229   -6.4012   -4.5121 O   0  0
   -0.7984    4.8708   -1.1685 O   0  0
    1.3267   -2.0883   -2.3049 O   0  0
   -1.1121   -0.8043   -1.5106 O   0  0
    1.7818    1.1166   -4.0347 O   0  0
    1.6836   -3.5897    0.2091 O   0  0
    2.0984   -1.6910   -4.4725 O   0  0
    4.5171   -7.3821   -5.3516 O   0  0
   -0.2303    1.7405   -2.0532 O   0  0
    6.0158   -3.9175   -3.9355 H   0  0
    2.6427   -6.0684   -5.5398 H   0  0
    4.6366   -1.8807   -3.7730 H   0  0
    1.2671   -4.0273   -5.3751 H   0  0
    1.6205    1.1273   -1.4713 H   0  0
   -0.0004    0.0130   -0.0050 H   0  0
    0.1516   -0.0940   -3.8664 H   0  0
    2.0891   -1.2829   -0.5645 H   0  0
    2.9371   -0.8744   -2.7968 H   0  0
    4.5298   -9.3776   -5.9056 H   0  0
    5.5811   -8.9521   -4.5192 H   0  0
    6.0520   -8.4893   -6.1759 H   0  0
   -0.4297    2.0405   -0.0255 H   0  0
    0.8077    3.0360   -0.8394 H   0  0
   -0.1340   -3.3273   -0.7079 H   0  0
    0.1302   -2.3729    0.7745 H   0  0
   -1.4359   -1.4895   -0.9074 H   0  0
    2.5803    1.3137   -3.5221 H   0  0
    1.3240   -4.3187    0.7426 H   0  0
  1  3  2  0
  1  5  1  0
  2  4  1  0
  2  5  2  0
  3  6  1  0
  4  6  2  0
  5  7  1  0
  6 24  1  0
  7 18  2  0
  7 25  1  0
  8 15  1  0
  8 17  1  0
  8 19  2  0
  9 10  1  0
  9 11  1  0
  9 26  1  0
 10 12  1  0
 10 21  1  0
 11 13  1  0
 11 22  1  0
 12 16  1  0
 12 20  1  0
 13 20  1  0
 13 24  1  0
 14 25  1  0
 15 26  1  0
 16 23  1  0
  1 27  1  0
  2 28  1  0
  3 29  1  0
  4 30  1  0
  9 31  1  0
 10 32  1  0
 11 33  1  0
 12 34  1  0
 13 35  1  0
 14 36  1  0
 14 37  1  0
 14 38  1  0
 15 39  1  0
 15 40  1  0
 16 41  1  0
 16 42  1  0
 21 43  1  0
 22 44  1  0
 23 45  1  0
M  CHG  1  17  -1
M  END
> <Name>
BR010090

$$$$
BR010091
  SciTegic05062102053D

 44 45  0  0  1  0            999 V2000
   -1.1814    3.6794   -1.0814 C   0  0
    4.9766   -3.9495   -4.2530 C   0  0
    3.0855   -5.1545   -5.1521 C   0  0
    4.1977   -2.7961   -4.1601 C   0  0
    2.3065   -4.0012   -5.0593 C   0  0
    4.4206   -5.1286   -4.7490 C   0  0
    2.8626   -2.8220   -4.5633 C   0  0
    5.2325   -6.3313   -4.8457 C   0  0
    0.7233    0.6893   -1.9268 C   0  0  1  0  0  0
    0.1626   -0.3970   -1.0083 C   0  0  2  0  0  0
    1.0679    0.1207   -3.3030 C   0  0  2  0  0  0
    1.1199   -1.5934   -0.9760 C   0  0  1  0  0  0
    1.9375   -1.1315   -3.1696 C   0  0  1  0  0  0
    5.2093   -8.6272   -5.4942 C   0  0
   -0.1957    2.6091   -0.9306 C   0  0
    0.5950   -2.7518   -0.1363 C   0  0
   -1.9630    4.5287   -1.2002 N   0  0
    6.4229   -6.4012   -4.5121 O   0  0
    1.3267   -2.0883   -2.3049 O   0  0
   -1.1121   -0.8043   -1.5106 O   0  0
    1.7818    1.1166   -4.0347 O   0  0
    1.6836   -3.5897    0.2091 O   0  0
    2.0984   -1.6910   -4.4725 O   0  0
    4.5171   -7.3821   -5.3516 O   0  0
   -0.2303    1.7405   -2.0532 O   0  0
    6.0158   -3.9175   -3.9355 H   0  0
    2.6427   -6.0684   -5.5398 H   0  0
    4.6366   -1.8807   -3.7730 H   0  0
    1.2671   -4.0273   -5.3751 H   0  0
    1.6205    1.1273   -1.4713 H   0  0
   -0.0004    0.0130   -0.0050 H   0  0
    0.1516   -0.0940   -3.8664 H   0  0
    2.0891   -1.2829   -0.5645 H   0  0
    2.9371   -0.8744   -2.7968 H   0  0
    4.5298   -9.3776   -5.9056 H   0  0
    5.5811   -8.9521   -4.5192 H   0  0
    6.0520   -8.4893   -6.1759 H   0  0
    0.8141    3.0234   -0.8578 H   0  0
   -0.3844    2.0188   -0.0289 H   0  0
   -0.1340   -3.3273   -0.7079 H   0  0
    0.1302   -2.3729    0.7745 H   0  0
   -1.4359   -1.4895   -0.9074 H   0  0
    2.5803    1.3137   -3.5221 H   0  0
    1.3240   -4.3187    0.7426 H   0  0
  1 15  1  0
  1 17  3  0
  2  4  2  0
  2  6  1  0
  3  5  1  0
  3  6  2  0
  4  7  1  0
  5  7  2  0
  6  8  1  0
  7 23  1  0
  8 18  2  0
  8 24  1  0
  9 10  1  0
  9 11  1  0
  9 25  1  0
 10 12  1  0
 10 20  1  0
 11 13  1  0
 11 21  1  0
 12 16  1  0
 12 19  1  0
 13 19  1  0
 13 23  1  0
 14 24  1  0
 15 25  1  0
 16 22  1  0
  2 26  1  0
  3 27  1  0
  4 28  1  0
  5 29  1  0
  9 30  1  0
 10 31  1  0
 11 32  1  0
 12 33  1  0
 13 34  1  0
 14 35  1  0
 14 36  1  0
 14 37  1  0
 15 38  1  0
 15 39  1  0
 16 40  1  0
 16 41  1  0
 20 42  1  0
 21 43  1  0
 22 44  1  0
M  END
> <Name>
BR010091

$$$$
BR010092
  SciTegic05062102053D

 47 49  0  0  1  0            999 V2000
    4.9766   -3.9495   -4.2530 C   0  0
    3.0855   -5.1545   -5.1521 C   0  0
    4.1977   -2.7961   -4.1601 C   0  0
    2.3065   -4.0012   -5.0593 C   0  0
    4.4206   -5.1286   -4.7490 C   0  0
    2.8626   -2.8220   -4.5633 C   0  0
   -1.2168    3.6925   -1.1180 C   0  0
    5.2325   -6.3313   -4.8457 C   0  0
    0.7233    0.6893   -1.9268 C   0  0  1  0  0  0
    0.1626   -0.3970   -1.0083 C   0  0  2  0  0  0
    1.0679    0.1207   -3.3030 C   0  0  2  0  0  0
    1.1199   -1.5934   -0.9760 C   0  0  1  0  0  0
    1.9375   -1.1315   -3.1696 C   0  0  1  0  0  0
    5.2093   -8.6272   -5.4942 C   0  0
   -0.1957    2.6091   -0.9306 C   0  0
    0.5950   -2.7518   -0.1363 C   0  0
   -2.0989    5.6150   -1.3400 N   0  5
   -0.9023    5.0012   -1.1602 N   0  0
   -2.5333    3.4468   -1.2597 N   0  0
   -3.0787    4.6811   -1.3997 N   0  0
    6.4229   -6.4012   -4.5121 O   0  0
    1.3267   -2.0883   -2.3049 O   0  0
   -1.1121   -0.8043   -1.5106 O   0  0
    1.7818    1.1166   -4.0347 O   0  0
    1.6836   -3.5897    0.2091 O   0  0
    2.0984   -1.6910   -4.4725 O   0  0
    4.5171   -7.3821   -5.3516 O   0  0
   -0.2303    1.7405   -2.0532 O   0  0
    6.0158   -3.9175   -3.9355 H   0  0
    2.6427   -6.0684   -5.5398 H   0  0
    4.6366   -1.8807   -3.7730 H   0  0
    1.2671   -4.0273   -5.3751 H   0  0
    1.6205    1.1273   -1.4713 H   0  0
   -0.0004    0.0130   -0.0050 H   0  0
    0.1516   -0.0940   -3.8664 H   0  0
    2.0891   -1.2829   -0.5645 H   0  0
    2.9371   -0.8744   -2.7968 H   0  0
    4.5298   -9.3776   -5.9056 H   0  0
    5.5811   -8.9521   -4.5192 H   0  0
    6.0520   -8.4893   -6.1759 H   0  0
    0.8106    3.0313   -0.8366 H   0  0
   -0.4047    2.0321   -0.0233 H   0  0
   -0.1340   -3.3273   -0.7079 H   0  0
    0.1302   -2.3729    0.7745 H   0  0
   -1.4359   -1.4895   -0.9074 H   0  0
    2.5803    1.3137   -3.5221 H   0  0
    1.3240   -4.3187    0.7426 H   0  0
  1  3  2  0
  1  5  1  0
  2  4  1  0
  2  5  2  0
  3  6  1  0
  4  6  2  0
  5  8  1  0
  6 26  1  0
  7 15  1  0
  7 18  2  0
  7 19  1  0
  8 21  2  0
  8 27  1  0
  9 10  1  0
  9 11  1  0
  9 28  1  0
 10 12  1  0
 10 23  1  0
 11 13  1  0
 11 24  1  0
 12 16  1  0
 12 22  1  0
 13 22  1  0
 13 26  1  0
 14 27  1  0
 15 28  1  0
 16 25  1  0
 17 18  1  0
 17 20  1  0
 19 20  2  0
  1 29  1  0
  2 30  1  0
  3 31  1  0
  4 32  1  0
  9 33  1  0
 10 34  1  0
 11 35  1  0
 12 36  1  0
 13 37  1  0
 14 38  1  0
 14 39  1  0
 14 40  1  0
 15 41  1  0
 15 42  1  0
 16 43  1  0
 16 44  1  0
 23 45  1  0
 24 46  1  0
 25 47  1  0
M  CHG  1  17  -1
M  END
> <Name>
BR010092

$$$$
BR010093
  SciTegic05062102053D

 45 46  0  0  1  0            999 V2000
    4.9940   -3.9108   -4.2345 C   0  0
    4.1950   -2.7704   -4.1537 C   0  0
    3.1284   -5.1544   -5.1345 C   0  0
    4.4608   -5.1028   -4.7250 C   0  0
    2.3293   -4.0140   -5.0537 C   0  0
    2.8626   -2.8220   -4.5633 C   0  0
    5.2951   -6.2911   -4.8087 C   0  0
    0.7233    0.6893   -1.9268 C   0  0  1  0  0  0
    0.1626   -0.3970   -1.0083 C   0  0  2  0  0  0
    1.0679    0.1207   -3.3030 C   0  0  2  0  0  0
    1.1199   -1.5934   -0.9760 C   0  0  1  0  0  0
    1.9375   -1.1315   -3.1696 C   0  0  1  0  0  0
    5.2706   -8.6751   -4.7199 C   0  0
   -0.1957    2.6091   -0.9306 C   0  0
    0.5950   -2.7518   -0.1363 C   0  0
    0.9731   -4.0835   -5.4764 N   0  3
    0.0931   -4.3957   -4.6398 O   0  5
    6.5195   -6.2755   -4.9924 O   0  0
    0.6980   -3.8302   -6.6730 O   0  0
    1.3267   -2.0883   -2.3049 O   0  0
   -1.1121   -0.8043   -1.5106 O   0  0
    1.7818    1.1166   -4.0347 O   0  0
    1.6836   -3.5897    0.2091 O   0  0
    2.0984   -1.6910   -4.4725 O   0  0
    4.5589   -7.4344   -4.6578 O   0  0
   -0.2303    1.7405   -2.0532 O   0  0
    6.0310   -3.8599   -3.9125 H   0  0
    4.6174   -1.8448   -3.7724 H   0  0
    2.7156   -6.0856   -5.5174 H   0  0
    1.6205    1.1273   -1.4713 H   0  0
   -0.0004    0.0130   -0.0050 H   0  0
    0.1516   -0.0940   -3.8664 H   0  0
    2.0891   -1.2829   -0.5645 H   0  0
    2.9371   -0.8744   -2.7968 H   0  0
    4.5714   -9.5042   -4.5857 H   0  0
    6.0338   -8.6979   -3.9380 H   0  0
    5.7507   -8.7610   -5.6975 H   0  0
   -0.9370    3.4016   -1.0593 H   0  0
    0.8032    3.0420   -0.8344 H   0  0
   -0.4307    2.0362   -0.0305 H   0  0
   -0.1340   -3.3273   -0.7079 H   0  0
    0.1302   -2.3729    0.7745 H   0  0
   -1.4359   -1.4895   -0.9074 H   0  0
    2.5803    1.3137   -3.5221 H   0  0
    1.3240   -4.3187    0.7426 H   0  0
  1  2  1  0
  1  4  2  0
  2  6  2  0
  3  4  1  0
  3  5  2  0
  4  7  1  0
  5  6  1  0
  5 16  1  0
  6 24  1  0
  7 18  2  0
  7 25  1  0
  8  9  1  0
  8 10  1  0
  8 26  1  0
  9 11  1  0
  9 21  1  0
 10 12  1  0
 10 22  1  0
 11 15  1  0
 11 20  1  0
 12 20  1  0
 12 24  1  0
 13 25  1  0
 14 26  1  0
 15 23  1  0
 16 17  1  0
 16 19  2  0
  1 27  1  0
  2 28  1  0
  3 29  1  0
  8 30  1  0
  9 31  1  0
 10 32  1  0
 11 33  1  0
 12 34  1  0
 13 35  1  0
 13 36  1  0
 13 37  1  0
 14 38  1  0
 14 39  1  0
 14 40  1  0
 15 41  1  0
 15 42  1  0
 21 43  1  0
 22 44  1  0
 23 45  1  0
M  CHG  2  16   1  17  -1
M  END
> <Name>
BR010093

$$$$
BR010094
  SciTegic05062102053D

 60 61  0  0  1  0            999 V2000
    4.9940   -3.9108   -4.2345 C   0  0
    4.1950   -2.7704   -4.1537 C   0  0
    3.1284   -5.1544   -5.1345 C   0  0
    4.4608   -5.1028   -4.7250 C   0  0
    2.3293   -4.0140   -5.0537 C   0  0
    2.8626   -2.8220   -4.5633 C   0  0
    5.2951   -6.2911   -4.8087 C   0  0
   -1.2220    3.6943   -1.1235 C   0  0
    0.7233    0.6893   -1.9268 C   0  0  1  0  0  0
    0.1626   -0.3970   -1.0083 C   0  0  2  0  0  0
    1.0679    0.1207   -3.3030 C   0  0  2  0  0  0
    1.1199   -1.5934   -0.9760 C   0  0  1  0  0  0
    1.9375   -1.1315   -3.1696 C   0  0  1  0  0  0
   -3.5506    5.0331   -0.1788 C   0  0
   -1.9745    6.3948    1.2250 C   0  0
   -1.8117    6.4819   -1.2798 C   0  0
    5.2706   -8.6751   -4.7199 C   0  0
   -0.1957    2.6091   -0.9306 C   0  0
    0.5950   -2.7518   -0.1363 C   0  0
   -2.1377    5.6049   -0.0717 C   0  0
    0.9731   -4.0835   -5.4764 N   0  3
    0.0931   -4.3957   -4.6398 O   0  5
    6.5195   -6.2755   -4.9924 O   0  0
   -1.9460    3.8086   -2.1032 O   0  0
    0.6980   -3.8302   -6.6730 O   0  0
    1.3267   -2.0883   -2.3049 O   0  0
   -1.1121   -0.8043   -1.5106 O   0  0
    1.7818    1.1166   -4.0347 O   0  0
    1.6836   -3.5897    0.2091 O   0  0
    2.0984   -1.6910   -4.4725 O   0  0
    4.5589   -7.4344   -4.6578 O   0  0
   -1.2080    4.5173   -0.0340 O   0  0
   -0.2303    1.7405   -2.0532 O   0  0
    6.0310   -3.8599   -3.9125 H   0  0
    4.6174   -1.8448   -3.7724 H   0  0
    2.7156   -6.0856   -5.5174 H   0  0
    1.6205    1.1273   -1.4713 H   0  0
   -0.0004    0.0130   -0.0050 H   0  0
    0.1516   -0.0940   -3.8664 H   0  0
    2.0891   -1.2829   -0.5645 H   0  0
    2.9371   -0.8744   -2.7968 H   0  0
   -3.6718    4.4654   -1.1083 H   0  0
   -3.7842    4.3744    0.6639 H   0  0
   -4.2962    5.8360   -0.2076 H   0  0
   -0.9621    6.8068    1.3061 H   0  0
   -2.1145    5.7462    2.0974 H   0  0
   -2.6908    7.2203    1.2881 H   0  0
   -0.7983    6.8921   -1.2032 H   0  0
   -1.8878    5.9215   -2.2172 H   0  0
   -2.4900    7.3412   -1.3318 H   0  0
    4.5714   -9.5042   -4.5857 H   0  0
    6.0338   -8.6979   -3.9380 H   0  0
    5.7507   -8.7610   -5.6975 H   0  0
   -0.4355    2.0351   -0.0316 H   0  0
    0.7996    3.0557   -0.8584 H   0  0
   -0.1340   -3.3273   -0.7079 H   0  0
    0.1302   -2.3729    0.7745 H   0  0
   -1.4359   -1.4895   -0.9074 H   0  0
    2.5803    1.3137   -3.5221 H   0  0
    1.3240   -4.3187    0.7426 H   0  0
  1  2  1  0
  1  4  2  0
  2  6  2  0
  3  4  1  0
  3  5  2  0
  4  7  1  0
  5  6  1  0
  5 21  1  0
  6 30  1  0
  7 23  2  0
  7 31  1  0
  8 18  1  0
  8 24  2  0
  8 32  1  0
  9 10  1  0
  9 11  1  0
  9 33  1  0
 10 12  1  0
 10 27  1  0
 11 13  1  0
 11 28  1  0
 12 19  1  0
 12 26  1  0
 13 26  1  0
 13 30  1  0
 14 20  1  0
 15 20  1  0
 16 20  1  0
 17 31  1  0
 18 33  1  0
 19 29  1  0
 20 32  1  0
 21 22  1  0
 21 25  2  0
  1 34  1  0
  2 35  1  0
  3 36  1  0
  9 37  1  0
 10 38  1  0
 11 39  1  0
 12 40  1  0
 13 41  1  0
 14 42  1  0
 14 43  1  0
 14 44  1  0
 15 45  1  0
 15 46  1  0
 15 47  1  0
 16 48  1  0
 16 49  1  0
 16 50  1  0
 17 51  1  0
 17 52  1  0
 17 53  1  0
 18 54  1  0
 18 55  1  0
 19 56  1  0
 19 57  1  0
 27 58  1  0
 28 59  1  0
 29 60  1  0
M  CHG  2  21   1  22  -1
M  END
> <Name>
BR010094

$$$$
BR010095
  SciTegic05062102053D

 47 48  0  0  1  0            999 V2000
    4.9940   -3.9108   -4.2345 C   0  0
    4.1950   -2.7704   -4.1537 C   0  0
    3.1284   -5.1544   -5.1345 C   0  0
    4.4608   -5.1028   -4.7250 C   0  0
    2.3293   -4.0140   -5.0537 C   0  0
    2.8626   -2.8220   -4.5633 C   0  0
    5.2951   -6.2911   -4.8087 C   0  0
   -1.2415    3.6883   -1.1600 C   0  0
    0.7233    0.6893   -1.9268 C   0  0  1  0  0  0
    0.1626   -0.3970   -1.0083 C   0  0  2  0  0  0
    1.0679    0.1207   -3.3030 C   0  0  2  0  0  0
    1.1199   -1.5934   -0.9760 C   0  0  1  0  0  0
    1.9375   -1.1315   -3.1696 C   0  0  1  0  0  0
    5.2706   -8.6751   -4.7199 C   0  0
   -0.1957    2.6091   -0.9306 C   0  0
    0.5950   -2.7518   -0.1363 C   0  0
    0.9731   -4.0835   -5.4764 N   0  3
   -2.4235    3.2669   -1.3062 O   0  5
    0.0931   -4.3957   -4.6398 O   0  5
    6.5195   -6.2755   -4.9924 O   0  0
   -0.7984    4.8708   -1.1685 O   0  0
    0.6980   -3.8302   -6.6730 O   0  0
    1.3267   -2.0883   -2.3049 O   0  0
   -1.1121   -0.8043   -1.5106 O   0  0
    1.7818    1.1166   -4.0347 O   0  0
    1.6836   -3.5897    0.2091 O   0  0
    2.0984   -1.6910   -4.4725 O   0  0
    4.5589   -7.4344   -4.6578 O   0  0
   -0.2303    1.7405   -2.0532 O   0  0
    6.0310   -3.8599   -3.9125 H   0  0
    4.6174   -1.8448   -3.7724 H   0  0
    2.7156   -6.0856   -5.5174 H   0  0
    1.6205    1.1273   -1.4713 H   0  0
   -0.0004    0.0130   -0.0050 H   0  0
    0.1516   -0.0940   -3.8664 H   0  0
    2.0891   -1.2829   -0.5645 H   0  0
    2.9371   -0.8744   -2.7968 H   0  0
    4.5714   -9.5042   -4.5857 H   0  0
    6.0338   -8.6979   -3.9380 H   0  0
    5.7507   -8.7610   -5.6975 H   0  0
   -0.4297    2.0405   -0.0255 H   0  0
    0.8077    3.0360   -0.8394 H   0  0
   -0.1340   -3.3273   -0.7079 H   0  0
    0.1302   -2.3729    0.7745 H   0  0
   -1.4359   -1.4895   -0.9074 H   0  0
    2.5803    1.3137   -3.5221 H   0  0
    1.3240   -4.3187    0.7426 H   0  0
  1  2  1  0
  1  4  2  0
  2  6  2  0
  3  4  1  0
  3  5  2  0
  4  7  1  0
  5  6  1  0
  5 17  1  0
  6 27  1  0
  7 20  2  0
  7 28  1  0
  8 15  1  0
  8 18  1  0
  8 21  2  0
  9 10  1  0
  9 11  1  0
  9 29  1  0
 10 12  1  0
 10 24  1  0
 11 13  1  0
 11 25  1  0
 12 16  1  0
 12 23  1  0
 13 23  1  0
 13 27  1  0
 14 28  1  0
 15 29  1  0
 16 26  1  0
 17 19  1  0
 17 22  2  0
  1 30  1  0
  2 31  1  0
  3 32  1  0
  9 33  1  0
 10 34  1  0
 11 35  1  0
 12 36  1  0
 13 37  1  0
 14 38  1  0
 14 39  1  0
 14 40  1  0
 15 41  1  0
 15 42  1  0
 16 43  1  0
 16 44  1  0
 24 45  1  0
 25 46  1  0
 26 47  1  0
M  CHG  3  17   1  18  -1  19  -1
M  END
> <Name>
BR010095

$$$$
BR010096
  SciTegic05062102053D

 46 47  0  0  1  0            999 V2000
   -1.1814    3.6794   -1.0814 C   0  0
    4.9940   -3.9108   -4.2345 C   0  0
    4.1950   -2.7704   -4.1537 C   0  0
    3.1284   -5.1544   -5.1345 C   0  0
    4.4608   -5.1028   -4.7250 C   0  0
    2.3293   -4.0140   -5.0537 C   0  0
    2.8626   -2.8220   -4.5633 C   0  0
    5.2951   -6.2911   -4.8087 C   0  0
    0.7233    0.6893   -1.9268 C   0  0  1  0  0  0
    0.1626   -0.3970   -1.0083 C   0  0  2  0  0  0
    1.0679    0.1207   -3.3030 C   0  0  2  0  0  0
    1.1199   -1.5934   -0.9760 C   0  0  1  0  0  0
    1.9375   -1.1315   -3.1696 C   0  0  1  0  0  0
    5.2706   -8.6751   -4.7199 C   0  0
   -0.1957    2.6091   -0.9306 C   0  0
    0.5950   -2.7518   -0.1363 C   0  0
   -1.9630    4.5287   -1.2002 N   0  0
    0.9731   -4.0835   -5.4764 N   0  3
    0.0931   -4.3957   -4.6398 O   0  5
    6.5195   -6.2755   -4.9924 O   0  0
    0.6980   -3.8302   -6.6730 O   0  0
    1.3267   -2.0883   -2.3049 O   0  0
   -1.1121   -0.8043   -1.5106 O   0  0
    1.7818    1.1166   -4.0347 O   0  0
    1.6836   -3.5897    0.2091 O   0  0
    2.0984   -1.6910   -4.4725 O   0  0
    4.5589   -7.4344   -4.6578 O   0  0
   -0.2303    1.7405   -2.0532 O   0  0
    6.0310   -3.8599   -3.9125 H   0  0
    4.6174   -1.8448   -3.7724 H   0  0
    2.7156   -6.0856   -5.5174 H   0  0
    1.6205    1.1273   -1.4713 H   0  0
   -0.0004    0.0130   -0.0050 H   0  0
    0.1516   -0.0940   -3.8664 H   0  0
    2.0891   -1.2829   -0.5645 H   0  0
    2.9371   -0.8744   -2.7968 H   0  0
    4.5714   -9.5042   -4.5857 H   0  0
    6.0338   -8.6979   -3.9380 H   0  0
    5.7507   -8.7610   -5.6975 H   0  0
    0.8141    3.0234   -0.8578 H   0  0
   -0.3844    2.0188   -0.0289 H   0  0
   -0.1340   -3.3273   -0.7079 H   0  0
    0.1302   -2.3729    0.7745 H   0  0
   -1.4359   -1.4895   -0.9074 H   0  0
    2.5803    1.3137   -3.5221 H   0  0
    1.3240   -4.3187    0.7426 H   0  0
  1 15  1  0
  1 17  3  0
  2  3  1  0
  2  5  2  0
  3  7  2  0
  4  5  1  0
  4  6  2  0
  5  8  1  0
  6  7  1  0
  6 18  1  0
  7 26  1  0
  8 20  2  0
  8 27  1  0
  9 10  1  0
  9 11  1  0
  9 28  1  0
 10 12  1  0
 10 23  1  0
 11 13  1  0
 11 24  1  0
 12 16  1  0
 12 22  1  0
 13 22  1  0
 13 26  1  0
 14 27  1  0
 15 28  1  0
 16 25  1  0
 18 19  1  0
 18 21  2  0
  2 29  1  0
  3 30  1  0
  4 31  1  0
  9 32  1  0
 10 33  1  0
 11 34  1  0
 12 35  1  0
 13 36  1  0
 14 37  1  0
 14 38  1  0
 14 39  1  0
 15 40  1  0
 15 41  1  0
 16 42  1  0
 16 43  1  0
 23 44  1  0
 24 45  1  0
 25 46  1  0
M  CHG  2  18   1  19  -1
M  END
> <Name>
BR010096

$$$$
BR010097
  SciTegic05062102053D

 49 51  0  0  1  0            999 V2000
    4.9940   -3.9108   -4.2345 C   0  0
    4.1950   -2.7704   -4.1537 C   0  0
    3.1284   -5.1544   -5.1345 C   0  0
    4.4608   -5.1028   -4.7250 C   0  0
    2.3293   -4.0140   -5.0537 C   0  0
    2.8626   -2.8220   -4.5633 C   0  0
   -1.2168    3.6925   -1.1180 C   0  0
    5.2951   -6.2911   -4.8087 C   0  0
    0.7233    0.6893   -1.9268 C   0  0  1  0  0  0
    0.1626   -0.3970   -1.0083 C   0  0  2  0  0  0
    1.0679    0.1207   -3.3030 C   0  0  2  0  0  0
    1.1199   -1.5934   -0.9760 C   0  0  1  0  0  0
    1.9375   -1.1315   -3.1696 C   0  0  1  0  0  0
    5.2706   -8.6751   -4.7199 C   0  0
   -0.1957    2.6091   -0.9306 C   0  0
    0.5950   -2.7518   -0.1363 C   0  0
   -2.0989    5.6150   -1.3400 N   0  5
   -0.9023    5.0012   -1.1602 N   0  0
   -2.5333    3.4468   -1.2597 N   0  0
   -3.0787    4.6811   -1.3997 N   0  0
    0.9731   -4.0835   -5.4764 N   0  3
    0.0931   -4.3957   -4.6398 O   0  5
    6.5195   -6.2755   -4.9924 O   0  0
    0.6980   -3.8302   -6.6730 O   0  0
    1.3267   -2.0883   -2.3049 O   0  0
   -1.1121   -0.8043   -1.5106 O   0  0
    1.7818    1.1166   -4.0347 O   0  0
    1.6836   -3.5897    0.2091 O   0  0
    2.0984   -1.6910   -4.4725 O   0  0
    4.5589   -7.4344   -4.6578 O   0  0
   -0.2303    1.7405   -2.0532 O   0  0
    6.0310   -3.8599   -3.9125 H   0  0
    4.6174   -1.8448   -3.7724 H   0  0
    2.7156   -6.0856   -5.5174 H   0  0
    1.6205    1.1273   -1.4713 H   0  0
   -0.0004    0.0130   -0.0050 H   0  0
    0.1516   -0.0940   -3.8664 H   0  0
    2.0891   -1.2829   -0.5645 H   0  0
    2.9371   -0.8744   -2.7968 H   0  0
    4.5714   -9.5042   -4.5857 H   0  0
    6.0338   -8.6979   -3.9380 H   0  0
    5.7507   -8.7610   -5.6975 H   0  0
    0.8106    3.0313   -0.8366 H   0  0
   -0.4047    2.0321   -0.0233 H   0  0
   -0.1340   -3.3273   -0.7079 H   0  0
    0.1302   -2.3729    0.7745 H   0  0
   -1.4359   -1.4895   -0.9074 H   0  0
    2.5803    1.3137   -3.5221 H   0  0
    1.3240   -4.3187    0.7426 H   0  0
  1  2  1  0
  1  4  2  0
  2  6  2  0
  3  4  1  0
  3  5  2  0
  4  8  1  0
  5  6  1  0
  5 21  1  0
  6 29  1  0
  7 15  1  0
  7 18  2  0
  7 19  1  0
  8 23  2  0
  8 30  1  0
  9 10  1  0
  9 11  1  0
  9 31  1  0
 10 12  1  0
 10 26  1  0
 11 13  1  0
 11 27  1  0
 12 16  1  0
 12 25  1  0
 13 25  1  0
 13 29  1  0
 14 30  1  0
 15 31  1  0
 16 28  1  0
 17 18  1  0
 17 20  1  0
 19 20  2  0
 21 22  1  0
 21 24  2  0
  1 32  1  0
  2 33  1  0
  3 34  1  0
  9 35  1  0
 10 36  1  0
 11 37  1  0
 12 38  1  0
 13 39  1  0
 14 40  1  0
 14 41  1  0
 14 42  1  0
 15 43  1  0
 15 44  1  0
 16 45  1  0
 16 46  1  0
 26 47  1  0
 27 48  1  0
 28 49  1  0
M  CHG  3  17  -1  21   1  22  -1
M  END
> <Name>
BR010097

$$$$
BR010098
  SciTegic05062102053D

 24 24  0  0  1  0            999 V2000
    0.6525    0.7003   -1.9500 C   0  0  1  0  0  0
    0.1365   -0.3953   -1.0129 C   0  0  2  0  0  0
    0.9465    0.1176   -3.3324 C   0  0  2  0  0  0
    1.1030   -1.5869   -1.0054 C   0  0  1  0  0  0
    1.8778   -1.0922   -3.2213 C   0  0  2  0  0  0
    0.5767   -2.7567   -0.1807 C   0  0
    1.3223   -2.0715   -2.3394 O   0  0
   -0.3196    1.7348   -2.0732 O   0  0
   -1.1452   -0.8427   -1.4614 O   0  0
    1.5508    1.1015   -4.1653 O   0  0
    3.1769   -0.6761   -2.8026 O   0  0
    1.6647   -3.5997    0.1529 O   0  0
    1.5568    1.1591   -1.5359 H   0  0
    0.0017    0.0075   -0.0025 H   0  0
    0.0041   -0.1802   -3.8098 H   0  0
    2.0622   -1.2779   -0.5792 H   0  0
    1.9892   -1.5506   -4.2100 H   0  0
   -0.1528   -3.3232   -0.7601 H   0  0
    0.1126   -2.3890    0.7349 H   0  0
   -0.4629    2.0873   -1.1811 H   0  0
   -1.0149   -1.1853   -2.3578 H   0  0
    1.7131    0.6774   -5.0226 H   0  0
    3.7186   -1.4782   -2.7504 H   0  0
    1.3050   -4.3357    0.6768 H   0  0
  1  2  1  0
  1  3  1  0
  1  8  1  0
  2  4  1  0
  2  9  1  0
  3  5  1  0
  3 10  1  0
  4  6  1  0
  4  7  1  0
  5  7  1  0
  5 11  1  0
  6 12  1  0
  1 13  1  0
  2 14  1  0
  3 15  1  0
  4 16  1  0
  5 17  1  0
  6 18  1  0
  6 19  1  0
  8 20  1  0
  9 21  1  0
 10 22  1  0
 11 23  1  0
 12 24  1  0
M  END
> <Name>
BR010098

$$$$
BR010099
  SciTegic05062102053D

 24 24  0  0  1  0            999 V2000
    0.7233    0.6893   -1.9268 C   0  0  1  0  0  0
    0.1626   -0.3970   -1.0083 C   0  0  2  0  0  0
    1.0679    0.1207   -3.3030 C   0  0  2  0  0  0
    1.1199   -1.5934   -0.9760 C   0  0  1  0  0  0
    1.9375   -1.1315   -3.1696 C   0  0  1  0  0  0
    0.5950   -2.7518   -0.1363 C   0  0
    1.3267   -2.0883   -2.3049 O   0  0
   -0.2303    1.7405   -2.0532 O   0  0
   -1.1121   -0.8043   -1.5106 O   0  0
    1.7818    1.1166   -4.0347 O   0  0
    2.0984   -1.6910   -4.4725 O   0  0
    1.6836   -3.5897    0.2091 O   0  0
    1.6205    1.1273   -1.4713 H   0  0
   -0.0004    0.0130   -0.0050 H   0  0
    0.1516   -0.0940   -3.8664 H   0  0
    2.0891   -1.2829   -0.5645 H   0  0
    2.9371   -0.8744   -2.7968 H   0  0
   -0.1340   -3.3273   -0.7079 H   0  0
    0.1302   -2.3729    0.7745 H   0  0
   -0.3811    2.0859   -1.1596 H   0  0
   -1.4359   -1.4895   -0.9074 H   0  0
    2.5803    1.3137   -3.5221 H   0  0
    2.6504   -2.4805   -4.3658 H   0  0
    1.3240   -4.3187    0.7426 H   0  0
  1  2  1  0
  1  3  1  0
  1  8  1  0
  2  4  1  0
  2  9  1  0
  3  5  1  0
  3 10  1  0
  4  6  1  0
  4  7  1  0
  5  7  1  0
  5 11  1  0
  6 12  1  0
  1 13  1  0
  2 14  1  0
  3 15  1  0
  4 16  1  0
  5 17  1  0
  6 18  1  0
  6 19  1  0
  8 20  1  0
  9 21  1  0
 10 22  1  0
 11 23  1  0
 12 24  1  0
M  END
> <Name>
BR010099

$$$$
BR010100
  SciTegic05062102053D

 57 59  0  0  1  0            999 V2000
    2.9056    8.8757   -0.0521 C   0  0
   -1.0449   -1.8721    8.7288 C   0  0
    3.0020    8.2723    1.2018 C   0  0
    1.9462    8.4378   -0.9650 C   0  0
   -0.2359   -2.6020    7.8580 C   0  0
   -2.0713   -1.0740    8.2235 C   0  0
    2.1390    7.2309    1.5427 C   0  0
    1.0832    7.3964   -0.6241 C   0  0
   -0.4532   -2.5336    6.4818 C   0  0
   -2.2885   -1.0056    6.8474 C   0  0
    1.1795    6.7929    0.6298 C   0  0
   -1.4795   -1.7354    5.9765 C   0  0
    3.8316    3.8034    5.1221 C   0  0
    3.0825    2.8587    4.5430 C   0  0
    0.4032    2.1243    0.0997 C   0  0  2  0  0  0
   -0.3745    0.8785    0.5369 C   0  0  1  0  0  0
   -0.0010    3.3360    0.9392 C   0  0  1  0  0  0
   -0.2549    0.6764    2.0537 C   0  0  2  0  0  0
    0.0998    3.0178    2.4343 C   0  0  1  0  0  0
    0.2510    5.6725    0.9958 C   0  0
   -1.7135   -1.6612    4.4962 C   0  0
    1.6368    3.0274    4.2121 C   0  0
   -1.1155   -0.4775    2.5561 C   0  0
   -0.6737    1.8580    2.7540 O   0  0
    0.1540    2.3989   -1.2763 O   0  0
   -1.7496    1.0149    0.1703 O   0  0
    0.8408    4.4381    0.6140 O   0  0
    1.4674    2.8667    2.8123 O   0  0
   -0.9366   -0.5986    3.9558 O   0  0
    3.5768    9.6875   -0.3169 H   0  0
   -0.8765   -1.9266    9.8004 H   0  0
    3.7483    8.6139    1.9131 H   0  0
    1.8702    8.9081   -1.9409 H   0  0
    0.5625   -3.2244    8.2513 H   0  0
   -2.7020   -0.5064    8.9013 H   0  0
    2.2215    6.7665    2.5219 H   0  0
    0.3388    7.0617   -1.3418 H   0  0
    0.1823   -3.1056    5.8108 H   0  0
   -3.0904   -0.3810    6.4628 H   0  0
    4.8799    3.6387    5.3453 H   0  0
    3.4000    4.7636    5.3827 H   0  0
    3.5425    1.9037    4.3024 H   0  0
    1.4799    1.9466    0.1983 H   0  0
    0.0119   -0.0045   -0.0047 H   0  0
   -1.0277    3.6219    0.6846 H   0  0
    0.7857    0.4601    2.3135 H   0  0
   -0.3007    3.8618    3.0061 H   0  0
    0.0598    5.6585    2.0743 H   0  0
   -0.7115    5.7840    0.4850 H   0  0
   -1.4266   -2.5982    4.0068 H   0  0
   -2.7716   -1.4788    4.2797 H   0  0
    1.2597    4.0143    4.4983 H   0  0
    1.0472    2.2614    4.7255 H   0  0
   -0.8123   -1.4069    2.0732 H   0  0
   -2.1665   -0.2795    2.3437 H   0  0
    0.4506    1.6198   -1.7716 H   0  0
   -2.0750    1.8040    0.6274 H   0  0
  1  3  2  0
  1  4  1  0
  2  5  2  0
  2  6  1  0
  3  7  1  0
  4  8  2  0
  5  9  1  0
  6 10  2  0
  7 11  2  0
  8 11  1  0
  9 12  2  0
 10 12  1  0
 11 20  1  0
 12 21  1  0
 13 14  2  0
 14 22  1  0
 15 16  1  0
 15 17  1  0
 15 25  1  0
 16 18  1  0
 16 26  1  0
 17 19  1  0
 17 27  1  0
 18 23  1  0
 18 24  1  0
 19 24  1  0
 19 28  1  0
 20 27  1  0
 21 29  1  0
 22 28  1  0
 23 29  1  0
  1 30  1  0
  2 31  1  0
  3 32  1  0
  4 33  1  0
  5 34  1  0
  6 35  1  0
  7 36  1  0
  8 37  1  0
  9 38  1  0
 10 39  1  0
 13 40  1  0
 13 41  1  0
 14 42  1  0
 15 43  1  0
 16 44  1  0
 17 45  1  0
 18 46  1  0
 19 47  1  0
 20 48  1  0
 20 49  1  0
 21 50  1  0
 21 51  1  0
 22 52  1  0
 22 53  1  0
 23 54  1  0
 23 55  1  0
 25 56  1  0
 26 57  1  0
M  END
> <Name>
BR010100

$$$$
BR010101
  SciTegic05062102053D

 82 85  0  0  1  0            999 V2000
   -4.8980   -4.9020    2.9476 O   0  0
   -1.1993   -3.8136    3.2662 C   0  0  1  0  0  0
   -1.3197   -3.2785    4.6169 O   0  0
   -2.5603   -2.5431    4.8267 C   0  0  1  0  0  0
   -3.7496   -3.4677    4.6088 C   0  0  1  0  0  0
   -3.7259   -4.0256    3.1378 C   0  0  1  0  0  0
   -2.3948   -4.8028    2.9843 C   0  0  1  0  0  0
   -1.1735   -2.7262    2.3296 O   0  0
   -0.2581   -4.3729    3.1834 H   0  0
   -2.3554   -5.5993    3.7356 H   0  0
   -2.3019   -5.4552    1.6538 O   0  0
   -2.5851   -2.0056    6.2538 C   0  0
   -2.6151   -1.7041    4.1193 H   0  0
   -3.7631   -3.2098    2.4036 H   0  0
   -3.6697   -4.5988    5.5483 O   0  0
   -4.6905   -2.9213    4.7597 H   0  0
   -1.4691   -1.1448    6.4349 O   0  0
    0.8675   -0.0564    7.3612 C   0  0
    2.0372    0.7979    7.5677 C   0  0
   -0.2794    0.2275    7.9750 C   0  0
    1.9536    1.8583    8.3690 C   0  0
   -0.3726    1.3905    8.8542 C   0  0
    0.6910    2.1687    9.0430 C   0  0
   -1.4738   -0.6433    7.7638 C   0  0
   -2.5978   -6.7545   -0.7102 C   0  0
   -2.5155   -7.5735   -1.9201 C   0  0
   -2.2895   -5.4598   -0.7624 C   0  0
   -2.1332   -7.0240   -3.0713 C   0  0
   -1.8703   -4.8564   -2.0245 C   0  0
   -1.7954   -5.6004   -3.1260 C   0  0
   -2.3703   -4.6164    0.4660 C   0  0
   -4.9679   -5.8773    4.7055 Sn  0  0
   -6.9375   -5.7640    5.6234 C   0  0
   -4.1771   -7.9013    4.5633 C   0  0
   -7.9864   -5.5365    4.5315 C   0  0
   -9.3725   -5.4563    5.1766 C   0  0
  -10.4224   -5.2287    4.0813 C   0  0
   -4.0222   -8.4819    5.9720 C   0  0
   -3.4670   -9.9051    5.8697 C   0  0
   -3.3144  -10.4859    7.2816 C   0  0
   -0.0117   -1.9037    2.5282 C   0  0
    0.0100   -0.7832    1.5317 C   0  0
   -0.9177   -0.7140    0.5778 C   0  0
   -3.5155   -1.4462    6.4220 H   0  0
   -2.5252   -2.8423    6.9633 H   0  0
    0.9334   -0.9012    6.7227 H   0  0
    2.9512    0.5728    7.0793 H   0  0
    2.8012    2.4779    8.5190 H   0  0
   -1.2875    1.6140    9.3414 H   0  0
    0.6239    3.0130    9.6811 H   0  0
   -1.3973   -1.5040    8.4423 H   0  0
   -2.3955   -0.0917    7.9957 H   0  0
   -2.9032   -7.1928    0.2057 H   0  0
   -2.7602   -8.6046   -1.8800 H   0  0
   -2.0735   -7.6174   -3.9483 H   0  0
   -1.6258   -3.8250   -2.0623 H   0  0
   -1.4911   -5.1621   -4.0424 H   0  0
   -1.5766   -3.8625    0.4313 H   0  0
   -3.3294   -4.0854    0.4395 H   0  0
   -7.1533   -6.7049    6.1496 H   0  0
   -6.9638   -4.9283    6.3367 H   0  0
   -4.8696   -8.5270    3.9832 H   0  0
   -3.1966   -7.8782    4.0658 H   0  0
   -7.7706   -4.5959    4.0045 H   0  0
   -7.9611   -6.3717    3.8172 H   0  0
   -9.5865   -6.3971    5.7035 H   0  0
   -9.3967   -4.6210    5.8908 H   0  0
  -11.4212   -5.1699    4.5368 H   0  0
  -10.3918   -6.0646    3.3678 H   0  0
  -10.2020   -4.2889    3.5550 H   0  0
   -3.3292   -7.8574    6.5535 H   0  0
   -5.0024   -8.5046    6.4700 H   0  0
   -4.1608  -10.5280    5.2874 H   0  0
   -2.4873   -9.8815    5.3718 H   0  0
   -2.9161  -11.5085    7.2167 H   0  0
   -4.2962  -10.5040    7.7761 H   0  0
   -2.6232   -9.8577    7.8614 H   0  0
    0.0043   -1.4832    3.5441 H   0  0
    0.9009   -2.5033    2.4075 H   0  0
    0.7697   -0.0448    1.5841 H   0  0
   -1.6789   -1.4510    0.5166 H   0  0
   -0.8948    0.0809   -0.1241 H   0  0
  1  6  1  0
  2  3  1  0
  3  4  1  0
  4  5  1  0
  5  6  1  0
  2  7  1  0
  6  7  1  0
  2  8  1  0
  8 41  1  0
  2  9  1  0
  7 10  1  0
  7 11  1  0
  4 12  1  0
 12 17  1  0
 12 44  1  0
 12 45  1  0
  4 13  1  0
  6 14  1  0
  5 15  1  0
 15 32  1  0
  5 16  1  0
 18 46  1  0
 18 19  1  0
 19 47  1  0
 18 20  2  0
 20 24  1  0
 19 21  2  0
 21 48  1  0
 20 22  1  0
 22 49  1  0
 21 23  1  0
 22 23  2  0
 23 50  1  0
 17 24  1  0
 24 51  1  0
 24 52  1  0
 25 53  1  0
 25 26  1  0
 26 54  1  0
 25 27  2  0
 27 31  1  0
 26 28  2  0
 28 55  1  0
 27 29  1  0
 29 56  1  0
 28 30  1  0
 29 30  2  0
 30 57  1  0
 11 31  1  0
 31 58  1  0
 31 59  1  0
  1 32  1  0
 32 33  1  0
 32 34  1  0
 33 35  1  0
 33 60  1  0
 33 61  1  0
 34 38  1  0
 34 62  1  0
 34 63  1  0
 35 36  1  0
 35 64  1  0
 35 65  1  0
 36 37  1  0
 36 66  1  0
 36 67  1  0
 37 68  1  0
 37 69  1  0
 37 70  1  0
 38 39  1  0
 38 71  1  0
 38 72  1  0
 39 40  1  0
 39 73  1  0
 39 74  1  0
 40 75  1  0
 40 76  1  0
 40 77  1  0
 41 42  1  0
 41 78  1  0
 41 79  1  0
 42 43  2  0
 42 80  1  0
 43 81  1  0
 43 82  1  0
M  END
> <Name>
BR010101

$$$$
BR010102
  SciTegic05062102053D

 69 72  0  0  1  0            999 V2000
   -3.2961    5.6473   -1.8413 C   0  0
    3.2896    3.8233   -7.9026 C   0  0
    4.6638   -7.1466    1.8383 C   0  0
   -2.8078    5.4351   -0.5521 C   0  0
   -2.7839    4.9127   -2.9108 C   0  0
    1.9400    3.9292   -7.5667 C   0  0
    4.0318    2.7241   -7.4705 C   0  0
    3.9287   -7.3853    0.6772 C   0  0
    4.2876   -6.1186    2.7029 C   0  0
   -1.8074    4.4883   -0.3323 C   0  0
   -1.7835    3.9659   -2.6910 C   0  0
    1.3325    2.9360   -6.7985 C   0  0
    3.4243    1.7309   -6.7024 C   0  0
    2.8175   -6.5961    0.3806 C   0  0
    3.1765   -5.3293    2.4063 C   0  0
   -1.2952    3.7537   -1.4017 C   0  0
    2.0746    1.8368   -6.3663 C   0  0
    2.4414   -5.5680    1.2451 C   0  0
    6.2547   -1.7977   -1.7676 C   0  0
    5.4901   -1.1584   -2.6596 C   0  0
   -0.2302    2.7459   -1.1677 C   0  0
    0.6525    0.7003   -1.9500 C   0  0  1  0  0  0
    0.1365   -0.3953   -1.0129 C   0  0  2  0  0  0
    0.9465    0.1176   -3.3324 C   0  0  2  0  0  0
    1.1030   -1.5869   -1.0054 C   0  0  1  0  0  0
    1.8778   -1.0922   -3.2213 C   0  0  2  0  0  0
    1.4218    0.7681   -5.5398 C   0  0
    1.2463   -4.7185    0.9265 C   0  0
    4.1585   -1.6503   -3.1210 C   0  0
    0.5767   -2.7567   -0.1807 C   0  0
    0.5972    2.8409   -0.2746 O   0  0
    1.3223   -2.0715   -2.3394 O   0  0
   -1.1452   -0.8427   -1.4614 O   0  0
   -0.3196    1.7348   -2.0732 O   0  0
    1.5508    1.1015   -4.1653 O   0  0
    3.1769   -0.6761   -2.8026 O   0  0
    1.6647   -3.5997    0.1529 O   0  0
   -4.0750    6.3845   -2.0124 H   0  0
    3.7622    4.5961   -8.5019 H   0  0
    5.5281   -7.7621    2.0698 H   0  0
   -3.2066    6.0073    0.2805 H   0  0
   -3.1643    5.0778   -3.9146 H   0  0
    1.3617    4.7845   -7.9040 H   0  0
    5.0823    2.6408   -7.7328 H   0  0
    4.2207   -8.1864    0.0044 H   0  0
    4.8590   -5.9331    3.6076 H   0  0
   -1.4342    4.3309    0.6764 H   0  0
   -1.3917    3.3994   -3.5319 H   0  0
    0.2804    3.0270   -6.5414 H   0  0
    4.0104    0.8782   -6.3700 H   0  0
    2.2508   -6.7892   -0.5265 H   0  0
    2.8909   -4.5305    3.0856 H   0  0
    7.2172   -1.4043   -1.4598 H   0  0
    5.9229   -2.7328   -1.3298 H   0  0
    5.8550   -0.2279   -3.0867 H   0  0
    1.5568    1.1591   -1.5359 H   0  0
    0.0017    0.0075   -0.0025 H   0  0
    0.0041   -0.1802   -3.8098 H   0  0
    2.0622   -1.2779   -0.5792 H   0  0
    1.9892   -1.5506   -4.2100 H   0  0
    0.3586    0.6765   -5.7868 H   0  0
    1.8940   -0.2037   -5.7195 H   0  0
    0.5017   -5.2868    0.3588 H   0  0
    0.7684   -4.3615    1.8451 H   0  0
    3.8794   -2.5956   -2.6449 H   0  0
    4.1713   -1.7916   -4.2062 H   0  0
   -0.1528   -3.3232   -0.7601 H   0  0
    0.1126   -2.3890    0.7349 H   0  0
   -1.0149   -1.1853   -2.3578 H   0  0
  1  4  2  0
  1  5  1  0
  2  6  2  0
  2  7  1  0
  3  8  2  0
  3  9  1  0
  4 10  1  0
  5 11  2  0
  6 12  1  0
  7 13  2  0
  8 14  1  0
  9 15  2  0
 10 16  2  0
 11 16  1  0
 12 17  2  0
 13 17  1  0
 14 18  2  0
 15 18  1  0
 16 21  1  0
 17 27  1  0
 18 28  1  0
 19 20  2  0
 20 29  1  0
 21 31  2  0
 21 34  1  0
 22 23  1  0
 22 24  1  0
 22 34  1  0
 23 25  1  0
 23 33  1  0
 24 26  1  0
 24 35  1  0
 25 30  1  0
 25 32  1  0
 26 32  1  0
 26 36  1  0
 27 35  1  0
 28 37  1  0
 29 36  1  0
 30 37  1  0
  1 38  1  0
  2 39  1  0
  3 40  1  0
  4 41  1  0
  5 42  1  0
  6 43  1  0
  7 44  1  0
  8 45  1  0
  9 46  1  0
 10 47  1  0
 11 48  1  0
 12 49  1  0
 13 50  1  0
 14 51  1  0
 15 52  1  0
 19 53  1  0
 19 54  1  0
 20 55  1  0
 22 56  1  0
 23 57  1  0
 24 58  1  0
 25 59  1  0
 26 60  1  0
 27 61  1  0
 27 62  1  0
 28 63  1  0
 28 64  1  0
 29 65  1  0
 29 66  1  0
 30 67  1  0
 30 68  1  0
 33 69  1  0
M  END
> <Name>
BR010102

$$$$
BR010103
  SciTegic05062102053D

 70 73  0  0  1  0            999 V2000
   -3.2601    5.6596   -1.4849 C   0  0
    3.2896    3.8233   -7.9026 C   0  0
    4.6638   -7.1466    1.8383 C   0  0
   -1.9686    5.8562   -1.9736 C   0  0
   -3.5835    4.4737   -0.8256 C   0  0
    1.9400    3.9292   -7.5667 C   0  0
    4.0318    2.7241   -7.4705 C   0  0
    3.9287   -7.3853    0.6772 C   0  0
    4.2876   -6.1186    2.7029 C   0  0
   -1.0003    4.8667   -1.8031 C   0  0
   -2.6152    3.4842   -0.6551 C   0  0
    1.3325    2.9360   -6.7985 C   0  0
    3.4243    1.7309   -6.7024 C   0  0
    2.8175   -6.5961    0.3806 C   0  0
    3.1765   -5.3293    2.4063 C   0  0
   -1.3236    3.6807   -1.1439 C   0  0
    2.0746    1.8368   -6.3663 C   0  0
    2.4414   -5.5680    1.2451 C   0  0
    6.2547   -1.7977   -1.7676 C   0  0
    5.4901   -1.1584   -2.6596 C   0  0
    0.6525    0.7003   -1.9500 C   0  0  1  0  0  0
    0.1365   -0.3953   -1.0129 C   0  0  2  0  0  0
    0.9465    0.1176   -3.3324 C   0  0  2  0  0  0
    1.1030   -1.5869   -1.0054 C   0  0  1  0  0  0
    1.8778   -1.0922   -3.2213 C   0  0  2  0  0  0
   -0.2826    2.6158   -0.9603 C   0  0
    1.4218    0.7681   -5.5398 C   0  0
    1.2463   -4.7185    0.9265 C   0  0
    4.1585   -1.6503   -3.1210 C   0  0
    0.5767   -2.7567   -0.1807 C   0  0
    1.3223   -2.0715   -2.3394 O   0  0
   -1.1452   -0.8427   -1.4614 O   0  0
   -0.3196    1.7348   -2.0732 O   0  0
    1.5508    1.1015   -4.1653 O   0  0
    3.1769   -0.6761   -2.8026 O   0  0
    1.6647   -3.5997    0.1529 O   0  0
   -4.0136    6.4308   -1.6165 H   0  0
    3.7622    4.5961   -8.5019 H   0  0
    5.5281   -7.7621    2.0698 H   0  0
   -1.7164    6.7800   -2.4860 H   0  0
   -4.5886    4.3208   -0.4440 H   0  0
    1.3617    4.7845   -7.9040 H   0  0
    5.0823    2.6408   -7.7328 H   0  0
    4.2207   -8.1864    0.0044 H   0  0
    4.8590   -5.9331    3.6076 H   0  0
    0.0034    5.0284   -2.1874 H   0  0
   -2.8762    2.5633   -0.1403 H   0  0
    0.2804    3.0270   -6.5414 H   0  0
    4.0104    0.8782   -6.3700 H   0  0
    2.2508   -6.7892   -0.5265 H   0  0
    2.8909   -4.5305    3.0856 H   0  0
    7.2172   -1.4043   -1.4598 H   0  0
    5.9229   -2.7328   -1.3298 H   0  0
    5.8550   -0.2279   -3.0867 H   0  0
    1.5568    1.1591   -1.5359 H   0  0
    0.0017    0.0075   -0.0025 H   0  0
    0.0041   -0.1802   -3.8098 H   0  0
    2.0622   -1.2779   -0.5792 H   0  0
    1.9892   -1.5506   -4.2100 H   0  0
    0.7181    3.0549   -0.8856 H   0  0
   -0.4689    2.0452   -0.0441 H   0  0
    0.3586    0.6765   -5.7868 H   0  0
    1.8940   -0.2037   -5.7195 H   0  0
    0.5017   -5.2868    0.3588 H   0  0
    0.7684   -4.3615    1.8451 H   0  0
    3.8794   -2.5956   -2.6449 H   0  0
    4.1713   -1.7916   -4.2062 H   0  0
   -0.1528   -3.3232   -0.7601 H   0  0
    0.1126   -2.3890    0.7349 H   0  0
   -1.0149   -1.1853   -2.3578 H   0  0
  1  4  2  0
  1  5  1  0
  2  6  2  0
  2  7  1  0
  3  8  2  0
  3  9  1  0
  4 10  1  0
  5 11  2  0
  6 12  1  0
  7 13  2  0
  8 14  1  0
  9 15  2  0
 10 16  2  0
 11 16  1  0
 12 17  2  0
 13 17  1  0
 14 18  2  0
 15 18  1  0
 16 26  1  0
 17 27  1  0
 18 28  1  0
 19 20  2  0
 20 29  1  0
 21 22  1  0
 21 23  1  0
 21 33  1  0
 22 24  1  0
 22 32  1  0
 23 25  1  0
 23 34  1  0
 24 30  1  0
 24 31  1  0
 25 31  1  0
 25 35  1  0
 26 33  1  0
 27 34  1  0
 28 36  1  0
 29 35  1  0
 30 36  1  0
  1 37  1  0
  2 38  1  0
  3 39  1  0
  4 40  1  0
  5 41  1  0
  6 42  1  0
  7 43  1  0
  8 44  1  0
  9 45  1  0
 10 46  1  0
 11 47  1  0
 12 48  1  0
 13 49  1  0
 14 50  1  0
 15 51  1  0
 19 52  1  0
 19 53  1  0
 20 54  1  0
 21 55  1  0
 22 56  1  0
 23 57  1  0
 24 58  1  0
 25 59  1  0
 26 60  1  0
 26 61  1  0
 27 62  1  0
 27 63  1  0
 28 64  1  0
 28 65  1  0
 29 66  1  0
 29 67  1  0
 30 68  1  0
 30 69  1  0
 32 70  1  0
M  END
> <Name>
BR010103

$$$$
BR010104
  SciTegic05062102053D

 64 66  0  0  1  0            999 V2000
    3.2896    3.8233   -7.9026 C   0  0
    4.6638   -7.1466    1.8383 C   0  0
    1.9400    3.9292   -7.5667 C   0  0
    4.0318    2.7241   -7.4705 C   0  0
    3.9287   -7.3853    0.6772 C   0  0
    4.2876   -6.1186    2.7029 C   0  0
    1.3325    2.9360   -6.7985 C   0  0
    3.4243    1.7309   -6.7024 C   0  0
    2.8175   -6.5961    0.3806 C   0  0
    3.1765   -5.3293    2.4063 C   0  0
    2.0746    1.8368   -6.3663 C   0  0
    2.4414   -5.5680    1.2451 C   0  0
   -2.3346    3.8829   -0.3037 C   0  0
    6.2547   -1.7977   -1.7676 C   0  0
   -1.3203    3.6719   -1.1498 C   0  0
    5.4901   -1.1584   -2.6596 C   0  0
    0.6525    0.7003   -1.9500 C   0  0  1  0  0  0
    0.1365   -0.3953   -1.0129 C   0  0  2  0  0  0
    0.9465    0.1176   -3.3324 C   0  0  2  0  0  0
    1.1030   -1.5869   -1.0054 C   0  0  1  0  0  0
    1.8778   -1.0922   -3.2213 C   0  0  2  0  0  0
    1.4218    0.7681   -5.5398 C   0  0
    1.2463   -4.7185    0.9265 C   0  0
   -0.2826    2.6158   -0.9603 C   0  0
    4.1585   -1.6503   -3.1210 C   0  0
    0.5767   -2.7567   -0.1807 C   0  0
    1.3223   -2.0715   -2.3394 O   0  0
   -1.1452   -0.8427   -1.4614 O   0  0
    1.5508    1.1015   -4.1653 O   0  0
   -0.3196    1.7348   -2.0732 O   0  0
    3.1769   -0.6761   -2.8026 O   0  0
    1.6647   -3.5997    0.1529 O   0  0
    3.7622    4.5961   -8.5019 H   0  0
    5.5281   -7.7621    2.0698 H   0  0
    1.3617    4.7845   -7.9040 H   0  0
    5.0823    2.6408   -7.7328 H   0  0
    4.2207   -8.1864    0.0044 H   0  0
    4.8590   -5.9331    3.6076 H   0  0
    0.2804    3.0270   -6.5414 H   0  0
    4.0104    0.8782   -6.3700 H   0  0
    2.2508   -6.7892   -0.5265 H   0  0
    2.8909   -4.5305    3.0856 H   0  0
   -3.0675    4.6625   -0.4798 H   0  0
   -2.4449    3.2713    0.5851 H   0  0
    7.2172   -1.4043   -1.4598 H   0  0
    5.9229   -2.7328   -1.3298 H   0  0
   -1.2325    4.3078   -2.0268 H   0  0
    5.8550   -0.2279   -3.0867 H   0  0
    1.5568    1.1591   -1.5359 H   0  0
    0.0017    0.0075   -0.0025 H   0  0
    0.0041   -0.1802   -3.8098 H   0  0
    2.0622   -1.2779   -0.5792 H   0  0
    1.9892   -1.5506   -4.2100 H   0  0
    0.3586    0.6765   -5.7868 H   0  0
    1.8940   -0.2037   -5.7195 H   0  0
    0.5017   -5.2868    0.3588 H   0  0
    0.7684   -4.3615    1.8451 H   0  0
   -0.4473    2.0332   -0.0484 H   0  0
    0.7094    3.0755   -0.9116 H   0  0
    3.8794   -2.5956   -2.6449 H   0  0
    4.1713   -1.7916   -4.2062 H   0  0
   -0.1528   -3.3232   -0.7601 H   0  0
    0.1126   -2.3890    0.7349 H   0  0
   -1.0149   -1.1853   -2.3578 H   0  0
  1  3  2  0
  1  4  1  0
  2  5  2  0
  2  6  1  0
  3  7  1  0
  4  8  2  0
  5  9  1  0
  6 10  2  0
  7 11  2  0
  8 11  1  0
  9 12  2  0
 10 12  1  0
 11 22  1  0
 12 23  1  0
 13 15  2  0
 14 16  2  0
 15 24  1  0
 16 25  1  0
 17 18  1  0
 17 19  1  0
 17 30  1  0
 18 20  1  0
 18 28  1  0
 19 21  1  0
 19 29  1  0
 20 26  1  0
 20 27  1  0
 21 27  1  0
 21 31  1  0
 22 29  1  0
 23 32  1  0
 24 30  1  0
 25 31  1  0
 26 32  1  0
  1 33  1  0
  2 34  1  0
  3 35  1  0
  4 36  1  0
  5 37  1  0
  6 38  1  0
  7 39  1  0
  8 40  1  0
  9 41  1  0
 10 42  1  0
 13 43  1  0
 13 44  1  0
 14 45  1  0
 14 46  1  0
 15 47  1  0
 16 48  1  0
 17 49  1  0
 18 50  1  0
 19 51  1  0
 20 52  1  0
 21 53  1  0
 22 54  1  0
 22 55  1  0
 23 56  1  0
 23 57  1  0
 24 58  1  0
 24 59  1  0
 25 60  1  0
 25 61  1  0
 26 62  1  0
 26 63  1  0
 28 64  1  0
M  END
> <Name>
BR010104

$$$$
BR010105
  SciTegic05062102053D

 60 62  0  0  1  0            999 V2000
    3.2896    3.8233   -7.9026 C   0  0
    4.6638   -7.1466    1.8383 C   0  0
    1.9400    3.9292   -7.5667 C   0  0
    4.0318    2.7241   -7.4705 C   0  0
    3.9287   -7.3853    0.6772 C   0  0
    4.2876   -6.1186    2.7029 C   0  0
    1.3325    2.9360   -6.7985 C   0  0
    3.4243    1.7309   -6.7024 C   0  0
    2.8175   -6.5961    0.3806 C   0  0
    3.1765   -5.3293    2.4063 C   0  0
    2.0746    1.8368   -6.3663 C   0  0
    2.4414   -5.5680    1.2451 C   0  0
    6.2547   -1.7977   -1.7676 C   0  0
    5.4901   -1.1584   -2.6596 C   0  0
    0.6525    0.7003   -1.9500 C   0  0  1  0  0  0
    0.1365   -0.3953   -1.0129 C   0  0  2  0  0  0
    0.9465    0.1176   -3.3324 C   0  0  2  0  0  0
    1.1030   -1.5869   -1.0054 C   0  0  1  0  0  0
    1.8778   -1.0922   -3.2213 C   0  0  2  0  0  0
   -0.2826    2.6158   -0.9603 C   0  0
    1.4218    0.7681   -5.5398 C   0  0
    1.2463   -4.7185    0.9265 C   0  0
    4.1585   -1.6503   -3.1210 C   0  0
    0.5767   -2.7567   -0.1807 C   0  0
    1.3223   -2.0715   -2.3394 O   0  0
   -1.1452   -0.8427   -1.4614 O   0  0
   -0.3196    1.7348   -2.0732 O   0  0
    1.5508    1.1015   -4.1653 O   0  0
    3.1769   -0.6761   -2.8026 O   0  0
    1.6647   -3.5997    0.1529 O   0  0
    3.7622    4.5961   -8.5019 H   0  0
    5.5281   -7.7621    2.0698 H   0  0
    1.3617    4.7845   -7.9040 H   0  0
    5.0823    2.6408   -7.7328 H   0  0
    4.2207   -8.1864    0.0044 H   0  0
    4.8590   -5.9331    3.6076 H   0  0
    0.2804    3.0270   -6.5414 H   0  0
    4.0104    0.8782   -6.3700 H   0  0
    2.2508   -6.7892   -0.5265 H   0  0
    2.8909   -4.5305    3.0856 H   0  0
    7.2172   -1.4043   -1.4598 H   0  0
    5.9229   -2.7328   -1.3298 H   0  0
    5.8550   -0.2279   -3.0867 H   0  0
    1.5568    1.1591   -1.5359 H   0  0
    0.0017    0.0075   -0.0025 H   0  0
    0.0041   -0.1802   -3.8098 H   0  0
    2.0622   -1.2779   -0.5792 H   0  0
    1.9892   -1.5506   -4.2100 H   0  0
   -1.0383    3.3949   -1.0862 H   0  0
    0.7105    3.0655   -0.8834 H   0  0
   -0.4951    2.0488   -0.0509 H   0  0
    0.3586    0.6765   -5.7868 H   0  0
    1.8940   -0.2037   -5.7195 H   0  0
    0.5017   -5.2868    0.3588 H   0  0
    0.7684   -4.3615    1.8451 H   0  0
    3.8794   -2.5956   -2.6449 H   0  0
    4.1713   -1.7916   -4.2062 H   0  0
   -0.1528   -3.3232   -0.7601 H   0  0
    0.1126   -2.3890    0.7349 H   0  0
   -1.0149   -1.1853   -2.3578 H   0  0
  1  3  2  0
  1  4  1  0
  2  5  2  0
  2  6  1  0
  3  7  1  0
  4  8  2  0
  5  9  1  0
  6 10  2  0
  7 11  2  0
  8 11  1  0
  9 12  2  0
 10 12  1  0
 11 21  1  0
 12 22  1  0
 13 14  2  0
 14 23  1  0
 15 16  1  0
 15 17  1  0
 15 27  1  0
 16 18  1  0
 16 26  1  0
 17 19  1  0
 17 28  1  0
 18 24  1  0
 18 25  1  0
 19 25  1  0
 19 29  1  0
 20 27  1  0
 21 28  1  0
 22 30  1  0
 23 29  1  0
 24 30  1  0
  1 31  1  0
  2 32  1  0
  3 33  1  0
  4 34  1  0
  5 35  1  0
  6 36  1  0
  7 37  1  0
  8 38  1  0
  9 39  1  0
 10 40  1  0
 13 41  1  0
 13 42  1  0
 14 43  1  0
 15 44  1  0
 16 45  1  0
 17 46  1  0
 18 47  1  0
 19 48  1  0
 20 49  1  0
 20 50  1  0
 20 51  1  0
 21 52  1  0
 21 53  1  0
 22 54  1  0
 22 55  1  0
 23 56  1  0
 23 57  1  0
 24 58  1  0
 24 59  1  0
 26 60  1  0
M  END
> <Name>
BR010105

$$$$
BR010106
  SciTegic05062102053D

 63 66  0  0  1  0            999 V2000
    2.8896    4.1069   -7.8062 C   0  0
    3.5703   -4.1480   -8.4961 C   0  0
    4.6838   -7.1118    1.9437 C   0  0
    2.9785    4.6051   -6.5064 C   0  0
    2.1537    2.9496   -8.0607 C   0  0
    2.8143   -4.8223   -7.5373 C   0  0
    4.2137   -2.9555   -8.1648 C   0  0
    3.9495   -7.3666    0.7855 C   0  0
    4.3066   -6.0724    2.7941 C   0  0
    2.3316    3.9459   -5.4610 C   0  0
    1.5068    2.2904   -7.0154 C   0  0
    2.7016   -4.3041   -6.2472 C   0  0
    4.1010   -2.4373   -6.8747 C   0  0
    2.8380   -6.5820    0.4777 C   0  0
    3.1952   -5.2878    2.4863 C   0  0
    1.5958    2.7886   -5.7155 C   0  0
    3.3449   -3.1116   -5.9158 C   0  0
    2.4609   -5.5426    1.3281 C   0  0
    0.7233    0.6893   -1.9268 C   0  0  1  0  0  0
    0.1626   -0.3970   -1.0083 C   0  0  2  0  0  0
    1.0679    0.1207   -3.3030 C   0  0  2  0  0  0
    1.1199   -1.5934   -0.9760 C   0  0  1  0  0  0
    1.9375   -1.1315   -3.1696 C   0  0  1  0  0  0
    0.8999    2.0789   -4.5915 C   0  0
    3.2238   -2.5535   -4.5283 C   0  0
    1.2655   -4.6981    0.9974 C   0  0
    0.5950   -2.7518   -0.1363 C   0  0
    1.3267   -2.0883   -2.3049 O   0  0
   -0.2303    1.7405   -2.0532 O   0  0
   -1.1121   -0.8043   -1.5106 O   0  0
    1.7818    1.1166   -4.0347 O   0  0
    2.0984   -1.6910   -4.4725 O   0  0
    1.6836   -3.5897    0.2091 O   0  0
    3.3922    4.6211   -8.6202 H   0  0
    3.6591   -4.5523   -9.5002 H   0  0
    5.5484   -7.7236    2.1839 H   0  0
    3.5505    5.5069   -6.3082 H   0  0
    2.0833    2.5621   -9.0727 H   0  0
    2.3142   -5.7514   -7.7948 H   0  0
    4.8033   -2.4308   -8.9107 H   0  0
    4.2423   -8.1765    0.1238 H   0  0
    4.8775   -5.8745    3.6965 H   0  0
    2.4066    4.3413   -4.4514 H   0  0
    0.9358    1.3893   -7.2230 H   0  0
    2.1102   -4.8363   -5.5067 H   0  0
    4.6056   -1.5076   -6.6256 H   0  0
    2.2719   -6.7877   -0.4270 H   0  0
    2.9088   -4.4801    3.1547 H   0  0
    1.6205    1.1273   -1.4713 H   0  0
   -0.0004    0.0130   -0.0050 H   0  0
    0.1516   -0.0940   -3.8664 H   0  0
    2.0891   -1.2829   -0.5645 H   0  0
    2.9371   -0.8744   -2.7968 H   0  0
    0.6004    2.7840   -3.8086 H   0  0
   -0.0024    1.5731   -4.9518 H   0  0
    3.0960   -3.3554   -3.7932 H   0  0
    4.1227   -1.9892   -4.2576 H   0  0
    0.5215   -5.2745    0.4371 H   0  0
    0.7869   -4.3290    1.9109 H   0  0
   -0.1340   -3.3273   -0.7079 H   0  0
    0.1302   -2.3729    0.7745 H   0  0
   -0.3811    2.0859   -1.1596 H   0  0
   -1.4359   -1.4895   -0.9074 H   0  0
  1  4  2  0
  1  5  1  0
  2  6  2  0
  2  7  1  0
  3  8  2  0
  3  9  1  0
  4 10  1  0
  5 11  2  0
  6 12  1  0
  7 13  2  0
  8 14  1  0
  9 15  2  0
 10 16  2  0
 11 16  1  0
 12 17  2  0
 13 17  1  0
 14 18  2  0
 15 18  1  0
 16 24  1  0
 17 25  1  0
 18 26  1  0
 19 20  1  0
 19 21  1  0
 19 29  1  0
 20 22  1  0
 20 30  1  0
 21 23  1  0
 21 31  1  0
 22 27  1  0
 22 28  1  0
 23 28  1  0
 23 32  1  0
 24 31  1  0
 25 32  1  0
 26 33  1  0
 27 33  1  0
  1 34  1  0
  2 35  1  0
  3 36  1  0
  4 37  1  0
  5 38  1  0
  6 39  1  0
  7 40  1  0
  8 41  1  0
  9 42  1  0
 10 43  1  0
 11 44  1  0
 12 45  1  0
 13 46  1  0
 14 47  1  0
 15 48  1  0
 19 49  1  0
 20 50  1  0
 21 51  1  0
 22 52  1  0
 23 53  1  0
 24 54  1  0
 24 55  1  0
 25 56  1  0
 25 57  1  0
 26 58  1  0
 26 59  1  0
 27 60  1  0
 27 61  1  0
 29 62  1  0
 30 63  1  0
M  END
> <Name>
BR010106

$$$$
BR010107
  SciTegic05062102053D

 88 92  0  0  1  0            999 V2000
   -4.7689   -4.8583    3.3246 O   0  0
   -1.1947   -3.4533    3.4823 C   0  0  2  0  0  0
   -1.2698   -2.9627    4.8413 O   0  0
   -2.5375   -2.3445    5.1328 C   0  0  1  0  0  0
   -3.6592   -3.3678    4.9628 C   0  0  1  0  0  0
   -3.6702   -3.8873    3.4818 C   0  0  1  0  0  0
   -2.2845   -4.5361    3.2331 C   0  0  1  0  0  0
   -1.3310   -2.6129    2.7894 H   0  0
    0.0859   -4.0326    3.2707 O   0  0
   -2.1303   -5.3531    3.9469 H   0  0
   -2.1826   -5.1034    1.8752 O   0  0
   -2.5221   -1.8414    6.5733 C   0  0
   -2.7013   -1.5001    4.4491 H   0  0
   -3.8189   -3.0570    2.7800 H   0  0
   -3.4295   -4.5078    5.8658 O   0  0
   -4.6333   -2.9086    5.1797 H   0  0
   -1.4685   -0.8988    6.7162 O   0  0
    0.8729    0.2543    7.6267 C   0  0
    1.9938    1.1811    7.7843 C   0  0
   -0.2905    0.5113    8.2208 C   0  0
    1.8492    2.2807    8.5217 C   0  0
   -0.4510    1.7170    9.0298 C   0  0
    0.5682    2.5615    9.1742 C   0  0
   -1.4329   -0.4348    8.0583 C   0  0
   -2.6512   -6.1987   -0.5882 C   0  0
   -2.5442   -6.9414   -1.8444 C   0  0
   -2.2228   -4.9399   -0.5222 C   0  0
   -2.0189   -6.3574   -2.9199 C   0  0
   -1.6466   -4.2983   -1.7007 C   0  0
   -1.5488   -4.9726   -2.8445 C   0  0
   -2.3300   -4.1806    0.7574 C   0  0
    2.6133   -4.3139    2.0617 C   0  0
    3.9233   -4.8995    1.7763 C   0  0
    2.4209   -3.6354    3.1901 C   0  0
    4.9212   -4.7529    2.6463 C   0  0
    3.5134   -3.4734    4.1457 C   0  0
    4.7062   -4.0056    3.8878 C   0  0
    1.0859   -3.0403    3.4779 C   0  0
   -4.6600   -5.8746    5.0583 Sn  0  0
   -3.7106   -7.8214    4.8193 C   0  0
   -6.5816   -5.9452    6.0789 C   0  0
   -3.7049   -8.5538    6.1655 C   0  0
   -3.0384   -9.9210    5.9907 C   0  0
   -3.0364  -10.6530    7.3391 C   0  0
   -7.6924   -5.6152    5.0784 C   0  0
   -9.0441   -5.6641    5.7955 C   0  0
  -10.1560   -5.3335    4.7914 C   0  0
   -3.4829   -1.3640    6.8097 H   0  0
   -2.3536   -2.6865    7.2547 H   0  0
    0.9866   -0.6223    7.0392 H   0  0
    2.9209    0.9774    7.3116 H   0  0
    2.6613    2.9530    8.6363 H   0  0
   -1.3791    1.9188    9.5013 H   0  0
    0.4525    3.4369    9.7613 H   0  0
   -1.2508   -1.3103    8.6965 H   0  0
   -2.3773    0.0426    8.3547 H   0  0
   -3.0699   -6.6632    0.2686 H   0  0
   -2.8848   -7.9442   -1.8983 H   0  0
   -1.9412   -6.8952   -3.8307 H   0  0
   -1.3064   -3.2956   -1.6443 H   0  0
   -1.1305   -4.5070   -3.7005 H   0  0
   -1.5863   -3.3728    0.7667 H   0  0
   -3.3302   -3.7331    0.7935 H   0  0
    1.8165   -4.4295    1.3702 H   0  0
    4.0782   -5.4404    0.8774 H   0  0
    5.8710   -5.1770    2.4401 H   0  0
    3.3556   -2.9320    5.0440 H   0  0
    5.5003   -3.8885    4.5809 H   0  0
    1.0516   -2.6342    4.4990 H   0  0
    0.8914   -2.2447    2.7457 H   0  0
   -4.2700   -8.4145    4.0827 H   0  0
   -2.6763   -7.6844    4.4719 H   0  0
   -6.7439   -6.9523    6.4892 H   0  0
   -6.5924   -5.2089    6.8946 H   0  0
   -3.1446   -7.9630    6.9039 H   0  0
   -4.7390   -8.6911    6.5134 H   0  0
   -3.5996  -10.5104    5.2517 H   0  0
   -2.0047   -9.7833    5.6432 H   0  0
   -2.5593  -11.6366    7.2222 H   0  0
   -4.0722  -10.7850    7.6835 H   0  0
   -2.4779  -10.0583    8.0760 H   0  0
   -7.5299   -4.6083    4.6673 H   0  0
   -7.6825   -6.3509    4.2618 H   0  0
   -9.2048   -6.6710    6.2063 H   0  0
   -9.0528   -4.9280    6.6119 H   0  0
  -11.1306   -5.3666    5.2989 H   0  0
  -10.1408   -6.0701    3.9753 H   0  0
   -9.9888   -4.3275    4.3806 H   0  0
  1  6  1  0
  2  3  1  0
  3  4  1  0
  4  5  1  0
  5  6  1  0
  2  7  1  0
  6  7  1  0
  2  8  1  0
  2  9  1  0
  7 10  1  0
  7 11  1  0
  4 12  1  0
 12 17  1  0
 12 48  1  0
 12 49  1  0
  4 13  1  0
  6 14  1  0
  5 15  1  0
 15 39  1  0
  5 16  1  0
 18 50  1  0
 18 19  1  0
 19 51  1  0
 18 20  2  0
 20 24  1  0
 19 21  2  0
 21 52  1  0
 20 22  1  0
 22 53  1  0
 21 23  1  0
 22 23  2  0
 23 54  1  0
 17 24  1  0
 24 55  1  0
 24 56  1  0
 25 57  1  0
 25 26  1  0
 26 58  1  0
 25 27  2  0
 27 31  1  0
 26 28  2  0
 28 59  1  0
 27 29  1  0
 29 60  1  0
 28 30  1  0
 29 30  2  0
 30 61  1  0
 11 31  1  0
 31 62  1  0
 31 63  1  0
 32 64  1  0
 32 33  1  0
 33 65  1  0
 32 34  2  0
 34 38  1  0
 33 35  2  0
 35 66  1  0
 34 36  1  0
 36 67  1  0
 35 37  1  0
 36 37  2  0
 37 68  1  0
  9 38  1  0
 38 69  1  0
 38 70  1  0
  1 39  1  0
 39 40  1  0
 39 41  1  0
 40 42  1  0
 40 71  1  0
 40 72  1  0
 41 45  1  0
 41 73  1  0
 41 74  1  0
 42 43  1  0
 42 75  1  0
 42 76  1  0
 43 44  1  0
 43 77  1  0
 43 78  1  0
 44 79  1  0
 44 80  1  0
 44 81  1  0
 45 46  1  0
 45 82  1  0
 45 83  1  0
 46 47  1  0
 46 84  1  0
 46 85  1  0
 47 86  1  0
 47 87  1  0
 47 88  1  0
M  END
> <Name>
BR010107

$$$$
BR010108
  SciTegic05062102053D

 76 80  0  0  1  0            999 V2000
   -3.1163    5.7058   -1.4663 C   0  0
    2.8896    4.1069   -7.8062 C   0  0
    3.5703   -4.1480   -8.4961 C   0  0
    4.6838   -7.1118    1.9437 C   0  0
   -1.8147    5.8866   -1.9339 C   0  0
   -3.4682    4.5184   -0.8245 C   0  0
    2.9785    4.6051   -6.5064 C   0  0
    2.1537    2.9496   -8.0607 C   0  0
    2.8143   -4.8223   -7.5373 C   0  0
    4.2137   -2.9555   -8.1648 C   0  0
    3.9495   -7.3666    0.7855 C   0  0
    4.3066   -6.0724    2.7941 C   0  0
   -0.8650    4.8800   -1.7598 C   0  0
   -2.5185    3.5117   -0.6504 C   0  0
    2.3316    3.9459   -5.4610 C   0  0
    1.5068    2.2904   -7.0154 C   0  0
    2.7016   -4.3041   -6.2472 C   0  0
    4.1010   -2.4373   -6.8747 C   0  0
    2.8380   -6.5820    0.4777 C   0  0
    3.1952   -5.2878    2.4863 C   0  0
   -1.2168    3.6925   -1.1180 C   0  0
    1.5958    2.7886   -5.7155 C   0  0
    3.3449   -3.1116   -5.9158 C   0  0
    2.4609   -5.5426    1.3281 C   0  0
    0.7233    0.6893   -1.9268 C   0  0  1  0  0  0
    0.1626   -0.3970   -1.0083 C   0  0  2  0  0  0
    1.0679    0.1207   -3.3030 C   0  0  2  0  0  0
    1.1199   -1.5934   -0.9760 C   0  0  1  0  0  0
    1.9375   -1.1315   -3.1696 C   0  0  1  0  0  0
   -0.1957    2.6091   -0.9306 C   0  0
    0.8999    2.0789   -4.5915 C   0  0
    3.2238   -2.5535   -4.5283 C   0  0
    1.2655   -4.6981    0.9974 C   0  0
    0.5950   -2.7518   -0.1363 C   0  0
    1.3267   -2.0883   -2.3049 O   0  0
   -1.1121   -0.8043   -1.5106 O   0  0
   -0.2303    1.7405   -2.0532 O   0  0
    1.7818    1.1166   -4.0347 O   0  0
    2.0984   -1.6910   -4.4725 O   0  0
    1.6836   -3.5897    0.2091 O   0  0
   -3.8554    6.4903   -1.6007 H   0  0
    3.3922    4.6211   -8.6202 H   0  0
    3.6591   -4.5523   -9.5002 H   0  0
    5.5484   -7.7236    2.1839 H   0  0
   -1.5403    6.8115   -2.4327 H   0  0
   -4.4812    4.3777   -0.4593 H   0  0
    3.5505    5.5069   -6.3082 H   0  0
    2.0833    2.5621   -9.0727 H   0  0
    2.3142   -5.7514   -7.7948 H   0  0
    4.8033   -2.4308   -8.9107 H   0  0
    4.2423   -8.1765    0.1238 H   0  0
    4.8775   -5.8745    3.6965 H   0  0
    0.1467    5.0295   -2.1276 H   0  0
   -2.8017    2.5899   -0.1493 H   0  0
    2.4066    4.3413   -4.4514 H   0  0
    0.9358    1.3893   -7.2230 H   0  0
    2.1102   -4.8363   -5.5067 H   0  0
    4.6056   -1.5076   -6.6256 H   0  0
    2.2719   -6.7877   -0.4270 H   0  0
    2.9088   -4.4801    3.1547 H   0  0
    1.6205    1.1273   -1.4713 H   0  0
   -0.0004    0.0130   -0.0050 H   0  0
    0.1516   -0.0940   -3.8664 H   0  0
    2.0891   -1.2829   -0.5645 H   0  0
    2.9371   -0.8744   -2.7968 H   0  0
    0.8106    3.0313   -0.8366 H   0  0
   -0.4047    2.0321   -0.0233 H   0  0
    0.6004    2.7840   -3.8086 H   0  0
   -0.0024    1.5731   -4.9518 H   0  0
    3.0960   -3.3554   -3.7932 H   0  0
    4.1227   -1.9892   -4.2576 H   0  0
    0.5215   -5.2745    0.4371 H   0  0
    0.7869   -4.3290    1.9109 H   0  0
   -0.1340   -3.3273   -0.7079 H   0  0
    0.1302   -2.3729    0.7745 H   0  0
   -1.4359   -1.4895   -0.9074 H   0  0
  1  5  2  0
  1  6  1  0
  2  7  2  0
  2  8  1  0
  3  9  2  0
  3 10  1  0
  4 11  2  0
  4 12  1  0
  5 13  1  0
  6 14  2  0
  7 15  1  0
  8 16  2  0
  9 17  1  0
 10 18  2  0
 11 19  1  0
 12 20  2  0
 13 21  2  0
 14 21  1  0
 15 22  2  0
 16 22  1  0
 17 23  2  0
 18 23  1  0
 19 24  2  0
 20 24  1  0
 21 30  1  0
 22 31  1  0
 23 32  1  0
 24 33  1  0
 25 26  1  0
 25 27  1  0
 25 37  1  0
 26 28  1  0
 26 36  1  0
 27 29  1  0
 27 38  1  0
 28 34  1  0
 28 35  1  0
 29 35  1  0
 29 39  1  0
 30 37  1  0
 31 38  1  0
 32 39  1  0
 33 40  1  0
 34 40  1  0
  1 41  1  0
  2 42  1  0
  3 43  1  0
  4 44  1  0
  5 45  1  0
  6 46  1  0
  7 47  1  0
  8 48  1  0
  9 49  1  0
 10 50  1  0
 11 51  1  0
 12 52  1  0
 13 53  1  0
 14 54  1  0
 15 55  1  0
 16 56  1  0
 17 57  1  0
 18 58  1  0
 19 59  1  0
 20 60  1  0
 25 61  1  0
 26 62  1  0
 27 63  1  0
 28 64  1  0
 29 65  1  0
 30 66  1  0
 30 67  1  0
 31 68  1  0
 31 69  1  0
 32 70  1  0
 32 71  1  0
 33 72  1  0
 33 73  1  0
 34 74  1  0
 34 75  1  0
 36 76  1  0
M  END
> <Name>
BR010108

$$$$
BR010109
  SciTegic05062102053D

 70 73  0  0  1  0            999 V2000
    2.6299    4.4869   -7.5440 C   0  0
    3.5703   -4.1480   -8.4961 C   0  0
    4.6838   -7.1118    1.9437 C   0  0
    1.3100    4.1779   -7.2154 C   0  0
    3.6598    3.6171   -7.1854 C   0  0
    2.8143   -4.8223   -7.5373 C   0  0
    4.2137   -2.9555   -8.1648 C   0  0
    3.9495   -7.3666    0.7855 C   0  0
    4.3066   -6.0724    2.7941 C   0  0
    1.0200    2.9993   -6.5281 C   0  0
    3.3698    2.4385   -6.4982 C   0  0
    2.7016   -4.3041   -6.2472 C   0  0
    4.1010   -2.4373   -6.8747 C   0  0
    2.8380   -6.5820    0.4777 C   0  0
    3.1952   -5.2878    2.4863 C   0  0
    2.0499    2.1295   -6.1695 C   0  0
    3.3449   -3.1116   -5.9158 C   0  0
    2.4609   -5.5426    1.3281 C   0  0
    0.7233    0.6893   -1.9268 C   0  0  1  0  0  0
    0.1626   -0.3970   -1.0083 C   0  0  2  0  0  0
    1.0679    0.1207   -3.3030 C   0  0  2  0  0  0
    1.1199   -1.5934   -0.9760 C   0  0  1  0  0  0
    1.9375   -1.1315   -3.1696 C   0  0  1  0  0  0
    0.8271    4.4157   -2.0759 C   0  0
    1.7386    0.8616   -5.4299 C   0  0
    3.2238   -2.5535   -4.5283 C   0  0
    1.2655   -4.6981    0.9974 C   0  0
    0.5950   -2.7518   -0.1363 C   0  0
   -0.2085    2.6227   -0.9329 C   0  0
    1.3267   -2.0883   -2.3049 O   0  0
   -1.1121   -0.8043   -1.5106 O   0  0
    1.7818    1.1166   -4.0347 O   0  0
   -0.2303    1.7405   -2.0532 O   0  0
    2.0984   -1.6910   -4.4725 O   0  0
    0.8722    3.5551   -0.9454 O   0  0
    1.6836   -3.5897    0.2091 O   0  0
    2.8554    5.4040   -8.0803 H   0  0
    3.6591   -4.5523   -9.5002 H   0  0
    5.5484   -7.7236    2.1839 H   0  0
    0.5078    4.8545   -7.4954 H   0  0
    4.6874    3.8568   -7.4421 H   0  0
    2.3142   -5.7514   -7.7948 H   0  0
    4.8033   -2.4308   -8.9107 H   0  0
    4.2423   -8.1765    0.1238 H   0  0
    4.8775   -5.8745    3.6965 H   0  0
   -0.0114    2.7669   -6.2760 H   0  0
    4.1786    1.7669   -6.2228 H   0  0
    2.1102   -4.8363   -5.5067 H   0  0
    4.6056   -1.5076   -6.6256 H   0  0
    2.2719   -6.7877   -0.4270 H   0  0
    2.9088   -4.4801    3.1547 H   0  0
    1.6205    1.1273   -1.4713 H   0  0
   -0.0004    0.0130   -0.0050 H   0  0
    0.1516   -0.0940   -3.8664 H   0  0
    2.0891   -1.2829   -0.5645 H   0  0
    2.9371   -0.8744   -2.7968 H   0  0
    1.6713    5.1087   -2.0412 H   0  0
   -0.1142    4.9710   -2.0749 H   0  0
    0.8910    3.8125   -2.9846 H   0  0
    0.7433    0.4882   -5.6941 H   0  0
    2.4668    0.0810   -5.6752 H   0  0
    3.0960   -3.3554   -3.7932 H   0  0
    4.1227   -1.9892   -4.2576 H   0  0
    0.5215   -5.2745    0.4371 H   0  0
    0.7869   -4.3290    1.9109 H   0  0
   -0.1340   -3.3273   -0.7079 H   0  0
    0.1302   -2.3729    0.7745 H   0  0
   -1.1605    3.1647   -0.9086 H   0  0
   -0.1473    2.0404   -0.0065 H   0  0
   -1.4359   -1.4895   -0.9074 H   0  0
  1  4  2  0
  1  5  1  0
  2  6  2  0
  2  7  1  0
  3  8  2  0
  3  9  1  0
  4 10  1  0
  5 11  2  0
  6 12  1  0
  7 13  2  0
  8 14  1  0
  9 15  2  0
 10 16  2  0
 11 16  1  0
 12 17  2  0
 13 17  1  0
 14 18  2  0
 15 18  1  0
 16 25  1  0
 17 26  1  0
 18 27  1  0
 19 20  1  0
 19 21  1  0
 19 33  1  0
 20 22  1  0
 20 31  1  0
 21 23  1  0
 21 32  1  0
 22 28  1  0
 22 30  1  0
 23 30  1  0
 23 34  1  0
 24 35  1  0
 25 32  1  0
 26 34  1  0
 27 36  1  0
 28 36  1  0
 29 33  1  0
 29 35  1  0
  1 37  1  0
  2 38  1  0
  3 39  1  0
  4 40  1  0
  5 41  1  0
  6 42  1  0
  7 43  1  0
  8 44  1  0
  9 45  1  0
 10 46  1  0
 11 47  1  0
 12 48  1  0
 13 49  1  0
 14 50  1  0
 15 51  1  0
 19 52  1  0
 20 53  1  0
 21 54  1  0
 22 55  1  0
 23 56  1  0
 24 57  1  0
 24 58  1  0
 24 59  1  0
 25 60  1  0
 25 61  1  0
 26 62  1  0
 26 63  1  0
 27 64  1  0
 27 65  1  0
 28 66  1  0
 28 67  1  0
 29 68  1  0
 29 69  1  0
 31 70  1  0
M  END
> <Name>
BR010109

$$$$
BR010110
  SciTegic05062102053D

 49 49  0  0  1  0            999 V2000
   -0.1514    2.7277   -1.1123 C   0  0
   -2.1676   -0.5982   -0.6712 C   0  0
    1.0128    1.9772   -4.7638 C   0  0
    3.1656   -2.5282   -4.6273 C   0  0
   -0.0513   -3.2307    2.0855 C   0  0
    0.7233    0.6893   -1.9268 C   0  0  1  0  0  0
    0.1626   -0.3970   -1.0083 C   0  0  2  0  0  0
    1.0679    0.1207   -3.3030 C   0  0  2  0  0  0
    1.1199   -1.5934   -0.9760 C   0  0  1  0  0  0
    1.9375   -1.1315   -3.1696 C   0  0  1  0  0  0
   -1.2083    3.7587   -1.3695 C   0  0
   -3.4304   -1.0693   -1.3265 C   0  0
    1.8918    2.9615   -5.4741 C   0  0
    3.2078   -3.0371   -6.0363 C   0  0
   -0.1861   -2.6172    3.4462 C   0  0
    0.5950   -2.7518   -0.1363 C   0  0
    0.6512    2.7844   -0.1904 O   0  0
   -2.1187   -0.1064    0.4481 O   0  0
   -0.2082    1.9681   -4.8419 O   0  0
    3.9774   -2.8330   -3.7641 O   0  0
   -0.3267   -4.3949    1.8285 O   0  0
    1.3267   -2.0883   -2.3049 O   0  0
   -0.2303    1.7405   -2.0532 O   0  0
   -1.1121   -0.8043   -1.5106 O   0  0
    1.7818    1.1166   -4.0347 O   0  0
    2.0984   -1.6910   -4.4725 O   0  0
    0.4192   -2.3021    1.1952 O   0  0
    1.6205    1.1273   -1.4713 H   0  0
   -0.0004    0.0130   -0.0050 H   0  0
    0.1516   -0.0940   -3.8664 H   0  0
    2.0891   -1.2829   -0.5645 H   0  0
    2.9371   -0.8744   -2.7968 H   0  0
   -0.8169    4.5334   -2.0335 H   0  0
   -1.5403    4.1936   -0.4233 H   0  0
   -2.0667    3.2849   -1.8544 H   0  0
   -3.8817   -0.2512   -1.8932 H   0  0
   -4.1244   -1.4424   -0.5691 H   0  0
   -3.1981   -1.8852   -2.0171 H   0  0
    2.0530    3.8384   -4.8422 H   0  0
    1.4342    3.2496   -6.4239 H   0  0
    2.8609    2.4984   -5.6816 H   0  0
    2.6305   -3.9616   -6.1142 H   0  0
    4.2445   -3.2031   -6.3398 H   0  0
    2.7651   -2.2924   -6.7043 H   0  0
    0.7455   -2.7423    4.0034 H   0  0
   -1.0200   -3.0794    3.9806 H   0  0
   -0.3897   -1.5473    3.3430 H   0  0
    1.3108   -3.5747   -0.1460 H   0  0
   -0.3628   -3.0945   -0.5293 H   0  0
  1 11  1  0
  1 17  2  0
  1 23  1  0
  2 12  1  0
  2 18  2  0
  2 24  1  0
  3 13  1  0
  3 19  2  0
  3 25  1  0
  4 14  1  0
  4 20  2  0
  4 26  1  0
  5 15  1  0
  5 21  2  0
  5 27  1  0
  6  7  1  0
  6  8  1  0
  6 23  1  0
  7  9  1  0
  7 24  1  0
  8 10  1  0
  8 25  1  0
  9 16  1  0
  9 22  1  0
 10 22  1  0
 10 26  1  0
 16 27  1  0
  6 28  1  0
  7 29  1  0
  8 30  1  0
  9 31  1  0
 10 32  1  0
 11 33  1  0
 11 34  1  0
 11 35  1  0
 12 36  1  0
 12 37  1  0
 12 38  1  0
 13 39  1  0
 13 40  1  0
 13 41  1  0
 14 42  1  0
 14 43  1  0
 14 44  1  0
 15 45  1  0
 15 46  1  0
 15 47  1  0
 16 48  1  0
 16 49  1  0
M  END
> <Name>
BR010110

$$$$
BR010111
  SciTegic05062102053D

 43 43  0  0  1  0            999 V2000
   -1.1616   -3.1438    1.3331 C   0  0
   -2.8174    0.3384    2.0195 C   0  0
    3.2279   -0.8386    1.6053 C   0  0
   -4.4180    1.9610   -1.6538 C   0  0
   -0.1937   -1.1738    0.4581 C   0  0  1  0  0  0
   -1.3631   -0.2105    0.2397 C   0  0  2  0  0  0
    1.1020   -0.3909    0.6759 C   0  0  2  0  0  0
   -1.0379    0.7615   -0.9017 C   0  0  1  0  0  0
    1.3283    0.6399   -0.4296 C   0  0  2  0  0  0
   -1.3851   -3.8967    2.6095 C   0  0
   -2.9125    1.1551    3.2725 C   0  0
    4.3328   -1.8510    1.6206 C   0  0
   -5.6210    1.1301   -1.9831 C   0  0
   -2.1230    1.8128   -1.1108 C   0  0
   -1.5453   -3.5261    0.2359 O   0  0
   -3.7185   -0.3721    1.5947 O   0  0
    3.2463    0.2054    2.2431 O   0  0
   -4.4244    3.1832   -1.5959 O   0  0
    0.1865    1.4668   -0.6491 O   0  0
   -0.4761   -1.9911    1.5915 O   0  0
   -1.5908    0.5159    1.4496 O   0  0
    2.2214   -1.2625    0.7831 O   0  0
   -3.3337    1.1531   -1.4331 O   0  0
    1.9463   -0.1681   -2.1068 Br  0  0
   -0.0971   -1.8483   -0.4004 H   0  0
   -2.2763   -0.7787    0.0298 H   0  0
    1.0301    0.1377    1.6361 H   0  0
   -0.9376    0.1996   -1.8378 H   0  0
    2.1626    1.2926   -0.1543 H   0  0
   -0.5515   -4.5804    2.7877 H   0  0
   -2.3289   -4.4453    2.5561 H   0  0
   -1.4406   -3.1899    3.4425 H   0  0
   -2.5686    0.5660    4.1262 H   0  0
   -3.9434    1.4856    3.4225 H   0  0
   -2.2744    2.0386    3.1788 H   0  0
    4.1586   -2.5781    2.4175 H   0  0
    5.2937   -1.3492    1.7599 H   0  0
    4.3527   -2.3806    0.6637 H   0  0
   -5.6788    0.9729   -3.0630 H   0  0
   -6.5244    1.6237   -1.6164 H   0  0
   -5.5339    0.1559   -1.4932 H   0  0
   -1.8453    2.4764   -1.9298 H   0  0
   -2.2605    2.3926   -0.1980 H   0  0
  1 10  1  0
  1 15  2  0
  1 20  1  0
  2 11  1  0
  2 16  2  0
  2 21  1  0
  3 12  1  0
  3 17  2  0
  3 22  1  0
  4 13  1  0
  4 18  2  0
  4 23  1  0
  5  6  1  0
  5  7  1  0
  5 20  1  0
  6  8  1  0
  6 21  1  0
  7  9  1  0
  7 22  1  0
  8 14  1  0
  8 19  1  0
  9 19  1  0
  9 24  1  0
 14 23  1  0
  5 25  1  0
  6 26  1  0
  7 27  1  0
  8 28  1  0
  9 29  1  0
 10 30  1  0
 10 31  1  0
 10 32  1  0
 11 33  1  0
 11 34  1  0
 11 35  1  0
 12 36  1  0
 12 37  1  0
 12 38  1  0
 13 39  1  0
 13 40  1  0
 13 41  1  0
 14 42  1  0
 14 43  1  0
M  END
> <Name>
BR010111

$$$$
BR010112
  SciTegic05062102053D

 45 45  0  0  1  0            999 V2000
    0.1280   -0.7902    3.5004 C   0  0
   -1.6014    2.8472    1.7900 C   0  0
    2.2822   -2.4855    1.5536 C   0  0
   -0.2097    4.1919   -2.2536 C   0  0
   -0.1824   -0.1818    1.2382 C   0  0  1  0  0  0
   -0.6025    1.1102    0.5374 C   0  0  1  0  0  0
    0.9000   -0.9193    0.4489 C   0  0  2  0  0  0
   -0.9140    0.8447   -0.9372 C   0  0  1  0  0  0
    0.5291   -1.0502   -1.0337 C   0  0  2  0  0  0
    0.7091   -0.3087    4.7952 C   0  0
   -2.8835    3.2556    2.4498 C   0  0
    2.2953   -3.8732    2.1193 C   0  0
    1.0482    4.9873   -2.0776 C   0  0
   -1.2217    2.1292   -1.7010 C   0  0
    1.3432   -2.1527   -4.0359 N   0  5
    1.6460   -1.7290   -1.7126 N   0  0
    1.4811   -1.9465   -2.9226 N   0  3
   -0.4330   -1.8685    3.3601 O   0  0
   -0.5844    3.5276    1.7887 O   0  0
    3.2425   -1.7276    1.5754 O   0  0
   -1.1853    4.5823   -2.8804 O   0  0
    0.2112    0.2370   -1.5727 O   0  0
    0.3253    0.1505    2.5321 O   0  0
   -1.7528    1.6219    1.2055 O   0  0
    1.0527   -2.2163    1.0250 O   0  0
   -0.0971    2.9850   -1.6149 O   0  0
   -1.0535   -0.8280    1.4049 H   0  0
    0.2019    1.8497    0.6411 H   0  0
    1.8568   -0.3939    0.5634 H   0  0
   -1.7858    0.1843   -1.0346 H   0  0
   -0.3451   -1.7032   -1.1483 H   0  0
    1.7518   -0.6259    4.8745 H   0  0
    0.1232   -0.6974    5.6320 H   0  0
    0.6739    0.7842    4.8243 H   0  0
   -3.5049    3.8095    1.7418 H   0  0
   -2.6693    3.8635    3.3324 H   0  0
   -3.4287    2.3620    2.7673 H   0  0
    1.9880   -3.8493    3.1677 H   0  0
    3.2945   -4.3048    2.0202 H   0  0
    1.5901   -4.4981    1.5635 H   0  0
    0.9756    5.6016   -1.1768 H   0  0
    1.2179    5.6125   -2.9579 H   0  0
    1.8961    4.3052   -1.9671 H   0  0
   -2.0867    2.6253   -1.2609 H   0  0
   -1.4216    1.9008   -2.7479 H   0  0
  1 10  1  0
  1 18  2  0
  1 23  1  0
  2 11  1  0
  2 19  2  0
  2 24  1  0
  3 12  1  0
  3 20  2  0
  3 25  1  0
  4 13  1  0
  4 21  2  0
  4 26  1  0
  5  6  1  0
  5  7  1  0
  5 23  1  0
  6  8  1  0
  6 24  1  0
  7  9  1  0
  7 25  1  0
  8 14  1  0
  8 22  1  0
  9 16  1  0
  9 22  1  0
 14 26  1  0
 15 17  2  0
 16 17  2  0
  5 27  1  0
  6 28  1  0
  7 29  1  0
  8 30  1  0
  9 31  1  0
 10 32  1  0
 10 33  1  0
 10 34  1  0
 11 35  1  0
 11 36  1  0
 11 37  1  0
 12 38  1  0
 12 39  1  0
 12 40  1  0
 13 41  1  0
 13 42  1  0
 13 43  1  0
 14 44  1  0
 14 45  1  0
M  CHG  2  15  -1  17   1
M  END
> <Name>
BR010112

$$$$
BR010113
  SciTegic05062102053D

 25 25  0  0  1  0            999 V2000
   -0.1630   -0.6728    1.1639 C   0  0  1  0  0  0
   -1.3454    0.0882    0.5654 C   0  0  2  0  0  0
    1.1543   -0.2564    0.5080 C   0  0  2  0  0  0
   -1.3322   -0.0549   -0.9591 C   0  0  1  0  0  0
    1.0483   -0.3173   -1.0242 C   0  0  2  0  0  0
   -2.4449    0.7337   -1.6393 C   0  0
    2.5265    0.0953   -3.9459 N   0  5
    2.3330    0.1492   -1.5735 N   0  0
    2.4264    0.1182   -2.8099 N   0  3
   -0.0879    0.4259   -1.4807 O   0  0
   -0.1103   -0.4340    2.5681 O   0  0
   -1.2319    1.4657    0.9291 O   0  0
    2.1695   -1.1548    0.9552 O   0  0
   -2.6437    0.2064   -2.9387 O   0  0
   -0.3177   -1.7511    1.0316 H   0  0
   -2.2824   -0.2843    0.9951 H   0  0
    1.4356    0.7496    0.8433 H   0  0
   -1.4429   -1.1115   -1.2352 H   0  0
    0.9331   -1.3583   -1.3508 H   0  0
   -2.1640    1.7846   -1.7172 H   0  0
   -3.3700    0.6427   -1.0691 H   0  0
   -0.9497   -0.7531    2.9341 H   0  0
   -1.9940    1.9150    0.5347 H   0  0
    1.8940   -2.0407    0.6750 H   0  0
   -3.3559    0.7245   -3.3506 H   0  0
  1  2  1  0
  1  3  1  0
  1 11  1  0
  2  4  1  0
  2 12  1  0
  3  5  1  0
  3 13  1  0
  4  6  1  0
  4 10  1  0
  5  8  1  0
  5 10  1  0
  6 14  1  0
  7  9  2  0
  8  9  2  0
  1 15  1  0
  2 16  1  0
  3 17  1  0
  4 18  1  0
  5 19  1  0
  6 20  1  0
  6 21  1  0
 11 22  1  0
 12 23  1  0
 13 24  1  0
 14 25  1  0
M  CHG  2   7  -1   9   1
M  END
> <Name>
BR010113

$$$$
BR010114
  SciTegic05062102053D

 46 46  0  0  1  0            999 V2000
   -2.5034    0.2411    2.6855 C   0  0
    0.9427    2.0687    2.5676 C   0  0
   -1.2586   -3.1243    1.2803 C   0  0
    0.9188    5.0424   -0.6195 C   0  0
   -1.0675   -0.0596    0.8331 C   0  0  1  0  0  0
   -0.2724    1.2413    0.7175 C   0  0  2  0  0  0
   -0.3086   -1.2394    0.2180 C   0  0  2  0  0  0
    0.1663    1.4583   -0.7353 C   0  0  1  0  0  0
    0.1920   -0.8853   -1.1892 C   0  0  2  0  0  0
   -2.6740   -0.1142    4.1315 C   0  0
    2.1902    1.8495    3.3687 C   0  0
   -2.2413   -4.2376    1.0776 C   0  0
    0.0103    6.1445   -0.1656 C   0  0
    1.0298    2.7007   -0.9167 C   0  0
    0.9848   -2.0410   -1.7070 N   0  3
   -3.2907    0.9310    2.0520 O   0  0
    0.1247    2.9484    2.8003 O   0  0
   -0.6102   -2.9608    2.3050 O   0  0
    2.0615    5.2176   -1.0203 O   0  0
    0.9350    0.3343   -1.1815 O   0  0
   -1.3538   -0.3188    2.2050 O   0  0
    0.8756    1.1470    1.5642 O   0  0
   -1.2100   -2.3443    0.1609 O   0  0
    0.2807    3.8346   -0.5172 O   0  0
   -2.0333    0.0602    0.3258 H   0  0
   -0.8766    2.0795    1.0832 H   0  0
    0.5227   -1.5176    0.8783 H   0  0
   -0.7168    1.5569   -1.3797 H   0  0
   -0.6458   -0.7924   -1.8908 H   0  0
   -3.2388   -1.0454    4.2205 H   0  0
   -3.1845    0.6980    4.6553 H   0  0
   -1.6903   -0.2580    4.5880 H   0  0
    1.9877    1.1556    4.1882 H   0  0
    2.5563    2.8046    3.7538 H   0  0
    2.9618    1.4149    2.7265 H   0  0
   -3.2338   -3.9207    1.4071 H   0  0
   -1.9167   -5.1238    1.6288 H   0  0
   -2.2907   -4.4885    0.0140 H   0  0
   -0.5672    6.5218   -1.0130 H   0  0
    0.5981    6.9465    0.2881 H   0  0
   -0.6846    5.7559    0.5845 H   0  0
    1.3139    2.8088   -1.9641 H   0  0
    1.9260    2.6267   -0.2996 H   0  0
    1.1655   -2.7130   -0.9587 H   0  0
    1.8812   -1.7197   -2.0783 H   0  0
    0.4752   -2.5163   -2.4544 H   0  0
  1 10  1  0
  1 16  2  0
  1 21  1  0
  2 11  1  0
  2 17  2  0
  2 22  1  0
  3 12  1  0
  3 18  2  0
  3 23  1  0
  4 13  1  0
  4 19  2  0
  4 24  1  0
  5  6  1  0
  5  7  1  0
  5 21  1  0
  6  8  1  0
  6 22  1  0
  7  9  1  0
  7 23  1  0
  8 14  1  0
  8 20  1  0
  9 15  1  0
  9 20  1  0
 14 24  1  0
  5 25  1  0
  6 26  1  0
  7 27  1  0
  8 28  1  0
  9 29  1  0
 10 30  1  0
 10 31  1  0
 10 32  1  0
 11 33  1  0
 11 34  1  0
 11 35  1  0
 12 36  1  0
 12 37  1  0
 12 38  1  0
 13 39  1  0
 13 40  1  0
 13 41  1  0
 14 42  1  0
 14 43  1  0
 15 44  1  0
 15 45  1  0
 15 46  1  0
M  CHG  1  15   1
M  END
> <Name>
BR010114

$$$$
BR010115
  SciTegic05062102053D

 50 50  0  0  1  0            999 V2000
   -2.3403   -2.7360   -1.5155 C   0  0
   -0.3458    1.6355    3.2852 C   0  0
    2.9765    1.0514    1.3229 C   0  0
   -1.9514   -1.8075    2.4553 C   0  0
    3.0131    3.5009   -2.2810 C   0  0
   -0.3897    0.5719    1.1755 C   0  0  1  0  0  0
    0.8017    1.1431    0.4033 C   0  0  2  0  0  0
   -0.7797   -0.8152    0.6591 C   0  0  2  0  0  0
    0.5289    1.0782   -1.1043 C   0  0  1  0  0  0
   -0.9115   -0.8070   -0.8675 C   0  0  2  0  0  0
   -2.2962   -4.1263   -2.0574 C   0  0
    0.0394    1.4253    4.7182 C   0  0
    4.1165    0.1179    1.5964 C   0  0
   -3.3308   -2.1209    2.9504 C   0  0
    3.1795    4.9200   -1.8288 C   0  0
    1.7058    1.5616   -1.9429 C   0  0
   -1.0972   -2.1439   -1.3710 N   0  0
   -3.4217   -2.2267   -1.2458 O   0  0
   -0.8334    2.6705    2.8515 O   0  0
    2.9823    2.2416    1.6066 O   0  0
   -0.9259   -2.0876    3.0610 O   0  0
    3.7140    2.9653   -3.1289 O   0  0
    0.2561   -0.2749   -1.4898 O   0  0
   -0.0700    0.5093    2.5626 O   0  0
    1.9603    0.3683    0.7217 O   0  0
   -2.0284   -1.1739    1.2482 O   0  0
    1.9745    2.9119   -1.6096 O   0  0
   -1.2441    1.2536    1.0780 H   0  0
    0.9986    2.1701    0.7312 H   0  0
   -0.0371   -1.5527    0.9887 H   0  0
   -0.3448    1.6956   -1.3501 H   0  0
   -1.7918   -0.2367   -1.1875 H   0  0
   -2.2190   -4.8852   -1.2623 H   0  0
   -3.2064   -4.3868   -2.6212 H   0  0
   -1.4603   -4.3387   -2.7428 H   0  0
   -0.8071    1.0135    5.2732 H   0  0
    0.3648    2.3717    5.1575 H   0  0
    0.8693    0.7144    4.7701 H   0  0
    3.9992   -0.3309    2.5858 H   0  0
    5.0636    0.6591    1.5284 H   0  0
    4.1183   -0.6811    0.8492 H   0  0
   -3.7068   -1.2896    3.5518 H   0  0
   -3.3140   -3.0436    3.5358 H   0  0
   -3.9990   -2.2634    2.0961 H   0  0
    2.5704    5.5811   -2.4501 H   0  0
    4.2334    5.2047   -1.8808 H   0  0
    2.8456    5.0114   -0.7911 H   0  0
    1.4611    1.4954   -3.0036 H   0  0
    2.5887    0.9571   -1.7320 H   0  0
   -0.2731   -2.6801   -1.6337 H   0  0
  1 11  1  0
  1 17  1  0
  1 18  2  0
  2 12  1  0
  2 19  2  0
  2 24  1  0
  3 13  1  0
  3 20  2  0
  3 25  1  0
  4 14  1  0
  4 21  2  0
  4 26  1  0
  5 15  1  0
  5 22  2  0
  5 27  1  0
  6  7  1  0
  6  8  1  0
  6 24  1  0
  7  9  1  0
  7 25  1  0
  8 10  1  0
  8 26  1  0
  9 16  1  0
  9 23  1  0
 10 17  1  0
 10 23  1  0
 16 27  1  0
  6 28  1  0
  7 29  1  0
  8 30  1  0
  9 31  1  0
 10 32  1  0
 11 33  1  0
 11 34  1  0
 11 35  1  0
 12 36  1  0
 12 37  1  0
 12 38  1  0
 13 39  1  0
 13 40  1  0
 13 41  1  0
 14 42  1  0
 14 43  1  0
 14 44  1  0
 15 45  1  0
 15 46  1  0
 15 47  1  0
 16 48  1  0
 16 49  1  0
 17 50  1  0
M  END
> <Name>
BR010115

$$$$
BR010116
  SciTegic05062102053D

 57 58  0  0  1  0            999 V2000
   -2.4150   -6.7306   -2.9951 C   0  0
   -3.4701   -6.2528   -2.2178 C   0  0
   -1.3398   -5.8960   -3.3001 C   0  0
   -3.4499   -4.9405   -1.7456 C   0  0
   -1.3196   -4.5837   -2.8279 C   0  0
   -2.3747   -4.1059   -2.0506 C   0  0
   -2.3533   -2.7081   -1.5477 C   0  0
   -0.3458    1.6355    3.2852 C   0  0
    2.9765    1.0514    1.3229 C   0  0
   -1.9514   -1.8075    2.4553 C   0  0
    3.0131    3.5009   -2.2810 C   0  0
   -0.3897    0.5719    1.1755 C   0  0  1  0  0  0
    0.8017    1.1431    0.4033 C   0  0  2  0  0  0
   -0.7797   -0.8152    0.6591 C   0  0  2  0  0  0
    0.5289    1.0782   -1.1043 C   0  0  1  0  0  0
   -0.9115   -0.8070   -0.8675 C   0  0  2  0  0  0
    0.0394    1.4253    4.7182 C   0  0
    4.1165    0.1179    1.5964 C   0  0
   -3.3308   -2.1209    2.9504 C   0  0
    3.1795    4.9200   -1.8288 C   0  0
    1.7058    1.5616   -1.9429 C   0  0
   -1.0972   -2.1439   -1.3710 N   0  0
   -3.4155   -2.1432   -1.3003 O   0  0
   -0.8334    2.6705    2.8515 O   0  0
    2.9823    2.2416    1.6066 O   0  0
   -0.9259   -2.0876    3.0610 O   0  0
    3.7140    2.9653   -3.1289 O   0  0
    0.2561   -0.2749   -1.4898 O   0  0
   -0.0700    0.5093    2.5626 O   0  0
    1.9603    0.3683    0.7217 O   0  0
   -2.0284   -1.1739    1.2482 O   0  0
    1.9745    2.9119   -1.6096 O   0  0
   -2.4308   -7.7524   -3.3628 H   0  0
   -4.3073   -6.9027   -1.9805 H   0  0
   -0.5181   -6.2681   -3.9051 H   0  0
   -4.2773   -4.5785   -1.1406 H   0  0
   -0.4767   -3.9423   -3.0720 H   0  0
   -1.2441    1.2536    1.0780 H   0  0
    0.9986    2.1701    0.7312 H   0  0
   -0.0371   -1.5527    0.9887 H   0  0
   -0.3448    1.6956   -1.3501 H   0  0
   -1.7918   -0.2367   -1.1875 H   0  0
   -0.8071    1.0135    5.2732 H   0  0
    0.3648    2.3717    5.1575 H   0  0
    0.8693    0.7144    4.7701 H   0  0
    3.9992   -0.3309    2.5858 H   0  0
    5.0636    0.6591    1.5284 H   0  0
    4.1183   -0.6811    0.8492 H   0  0
   -3.7068   -1.2896    3.5518 H   0  0
   -3.3140   -3.0436    3.5358 H   0  0
   -3.9990   -2.2634    2.0961 H   0  0
    2.5704    5.5811   -2.4501 H   0  0
    4.2334    5.2047   -1.8808 H   0  0
    2.8456    5.0114   -0.7911 H   0  0
    1.4611    1.4954   -3.0036 H   0  0
    2.5887    0.9571   -1.7320 H   0  0
   -0.2620   -2.6990   -1.5391 H   0  0
  1  2  2  0
  1  3  1  0
  2  4  1  0
  3  5  2  0
  4  6  2  0
  5  6  1  0
  6  7  1  0
  7 22  1  0
  7 23  2  0
  8 17  1  0
  8 24  2  0
  8 29  1  0
  9 18  1  0
  9 25  2  0
  9 30  1  0
 10 19  1  0
 10 26  2  0
 10 31  1  0
 11 20  1  0
 11 27  2  0
 11 32  1  0
 12 13  1  0
 12 14  1  0
 12 29  1  0
 13 15  1  0
 13 30  1  0
 14 16  1  0
 14 31  1  0
 15 21  1  0
 15 28  1  0
 16 22  1  0
 16 28  1  0
 21 32  1  0
  1 33  1  0
  2 34  1  0
  3 35  1  0
  4 36  1  0
  5 37  1  0
 12 38  1  0
 13 39  1  0
 14 40  1  0
 15 41  1  0
 16 42  1  0
 17 43  1  0
 17 44  1  0
 17 45  1  0
 18 46  1  0
 18 47  1  0
 18 48  1  0
 19 49  1  0
 19 50  1  0
 19 51  1  0
 20 52  1  0
 20 53  1  0
 20 54  1  0
 21 55  1  0
 21 56  1  0
 22 57  1  0
M  END
> <Name>
BR010116

$$$$
BR010117
  SciTegic05062102053D

 51 51  0  0  1  0            999 V2000
   -0.3476    1.6354    3.2853 C   0  0
    2.9765    1.0515    1.3229 C   0  0
   -1.9546   -1.8069    2.4535 C   0  0
    3.0134    3.5008   -2.2806 C   0  0
   -0.3897    0.5719    1.1755 C   0  0  1  0  0  0
    0.8017    1.1431    0.4033 C   0  0  2  0  0  0
   -0.7797   -0.8152    0.6591 C   0  0  2  0  0  0
    0.5289    1.0782   -1.1043 C   0  0  1  0  0  0
   -0.9115   -0.8070   -0.8675 C   0  0  2  0  0  0
    0.0373    1.4255    4.7184 C   0  0
    4.1166    0.1180    1.5965 C   0  0
   -3.3349   -2.1210    2.9458 C   0  0
    3.1798    4.9199   -1.8283 C   0  0
   -0.7058   -2.1865   -4.0001 C   0  0
    1.7060    1.5616   -1.9427 C   0  0
   -1.0783   -2.2005   -1.3460 N   0  0
   -0.8360    2.6699    2.8515 O   0  0
    2.9823    2.2418    1.6064 O   0  0
   -0.9303   -2.0856    3.0618 O   0  0
    3.7144    2.9652   -3.1285 O   0  0
   -2.9844   -1.4663   -2.9327 O   0  0
   -2.2983   -3.8902   -2.8311 O   0  0
    0.2561   -0.2749   -1.4898 O   0  0
   -0.0704    0.5095    2.5629 O   0  0
    1.9602    0.3684    0.7218 O   0  0
   -2.0295   -1.1744    1.2457 O   0  0
    1.9746    2.9118   -1.6094 O   0  0
   -1.9608   -2.4808   -2.7752 S   0  0
   -1.2448    1.2529    1.0780 H   0  0
    0.9985    2.1703    0.7310 H   0  0
   -0.0375   -1.5521    0.9913 H   0  0
   -0.3450    1.6952   -1.3502 H   0  0
   -1.7951   -0.2417   -1.1890 H   0  0
   -0.8090    1.0129    5.2731 H   0  0
    0.3617    2.3721    5.1579 H   0  0
    0.8678    0.7154    4.7706 H   0  0
    3.9993   -0.3306    2.5860 H   0  0
    5.0636    0.6593    1.5284 H   0  0
    4.1183   -0.6810    0.8494 H   0  0
   -3.7129   -1.2894    3.5456 H   0  0
   -3.3186   -3.0432    3.5321 H   0  0
   -4.0011   -2.2648    2.0902 H   0  0
    2.5708    5.5810   -2.4497 H   0  0
    4.2337    5.2046   -1.8803 H   0  0
    2.8458    5.0113   -0.7907 H   0  0
   -1.1464   -2.3353   -4.9872 H   0  0
   -0.3512   -1.1606   -3.8902 H   0  0
    0.1091   -2.8928   -3.8346 H   0  0
    1.4613    1.4954   -3.0035 H   0  0
    2.5887    0.9570   -1.7317 H   0  0
   -0.2603   -2.7927   -1.1719 H   0  0
  1 10  1  0
  1 17  2  0
  1 24  1  0
  2 11  1  0
  2 18  2  0
  2 25  1  0
  3 12  1  0
  3 19  2  0
  3 26  1  0
  4 13  1  0
  4 20  2  0
  4 27  1  0
  5  6  1  0
  5  7  1  0
  5 24  1  0
  6  8  1  0
  6 25  1  0
  7  9  1  0
  7 26  1  0
  8 15  1  0
  8 23  1  0
  9 16  1  0
  9 23  1  0
 14 28  1  0
 15 27  1  0
 16 28  1  0
 21 28  2  0
 22 28  2  0
  5 29  1  0
  6 30  1  0
  7 31  1  0
  8 32  1  0
  9 33  1  0
 10 34  1  0
 10 35  1  0
 10 36  1  0
 11 37  1  0
 11 38  1  0
 11 39  1  0
 12 40  1  0
 12 41  1  0
 12 42  1  0
 13 43  1  0
 13 44  1  0
 13 45  1  0
 14 46  1  0
 14 47  1  0
 14 48  1  0
 15 49  1  0
 15 50  1  0
 16 51  1  0
M  END
> <Name>
BR010117

$$$$
BR010118
  SciTegic05062102053D

 58 59  0  0  1  0            999 V2000
    0.4334   -0.1709   -5.8696 C   0  0
    0.7505   -1.5029   -5.6034 C   0  0
   -0.6138    0.4468   -5.1858 C   0  0
    0.0204   -2.2172   -4.6535 C   0  0
   -1.3439   -0.2676   -4.2359 C   0  0
   -1.0268   -1.5996   -3.9698 C   0  0
   -0.3476    1.6354    3.2853 C   0  0
    2.9765    1.0515    1.3229 C   0  0
   -1.9546   -1.8069    2.4535 C   0  0
    3.0134    3.5008   -2.2806 C   0  0
   -0.3897    0.5719    1.1755 C   0  0  1  0  0  0
    0.8017    1.1431    0.4033 C   0  0  2  0  0  0
   -0.7797   -0.8152    0.6591 C   0  0  2  0  0  0
    0.5289    1.0782   -1.1043 C   0  0  1  0  0  0
   -0.9115   -0.8070   -0.8675 C   0  0  2  0  0  0
    0.0373    1.4255    4.7184 C   0  0
    4.1166    0.1180    1.5965 C   0  0
   -3.3349   -2.1210    2.9458 C   0  0
    3.1798    4.9199   -1.8283 C   0  0
    1.7060    1.5616   -1.9427 C   0  0
   -1.0783   -2.2005   -1.3460 N   0  0
   -0.8360    2.6699    2.8515 O   0  0
    2.9823    2.2418    1.6064 O   0  0
   -0.9303   -2.0856    3.0618 O   0  0
    3.7144    2.9652   -3.1285 O   0  0
   -3.2676   -1.8999   -2.6664 O   0  0
   -1.8228   -3.9109   -3.1052 O   0  0
    0.2561   -0.2749   -1.4898 O   0  0
   -0.0704    0.5095    2.5629 O   0  0
    1.9602    0.3684    0.7218 O   0  0
   -2.0295   -1.1744    1.2457 O   0  0
    1.9746    2.9118   -1.6094 O   0  0
   -1.9540   -2.5063   -2.7685 S   0  0
    1.0011    0.3857   -6.6096 H   0  0
    1.5651   -1.9845   -6.1363 H   0  0
   -0.8609    1.4836   -5.3938 H   0  0
    0.2753   -3.2548   -4.4545 H   0  0
   -2.1585    0.2231   -3.7102 H   0  0
   -1.2448    1.2529    1.0780 H   0  0
    0.9985    2.1703    0.7310 H   0  0
   -0.0375   -1.5521    0.9913 H   0  0
   -0.3450    1.6952   -1.3502 H   0  0
   -1.7951   -0.2417   -1.1890 H   0  0
   -0.8090    1.0129    5.2731 H   0  0
    0.3617    2.3721    5.1579 H   0  0
    0.8678    0.7154    4.7706 H   0  0
    3.9993   -0.3306    2.5860 H   0  0
    5.0636    0.6593    1.5284 H   0  0
    4.1183   -0.6810    0.8494 H   0  0
   -3.7129   -1.2894    3.5456 H   0  0
   -3.3186   -3.0432    3.5321 H   0  0
   -4.0011   -2.2648    2.0902 H   0  0
    2.5708    5.5810   -2.4497 H   0  0
    4.2337    5.2046   -1.8803 H   0  0
    2.8458    5.0113   -0.7907 H   0  0
    1.4613    1.4954   -3.0035 H   0  0
    2.5887    0.9570   -1.7317 H   0  0
   -0.3527   -2.8553   -1.0483 H   0  0
  1  2  1  0
  1  3  2  0
  2  4  2  0
  3  5  1  0
  4  6  1  0
  5  6  2  0
  6 33  1  0
  7 16  1  0
  7 22  2  0
  7 29  1  0
  8 17  1  0
  8 23  2  0
  8 30  1  0
  9 18  1  0
  9 24  2  0
  9 31  1  0
 10 19  1  0
 10 25  2  0
 10 32  1  0
 11 12  1  0
 11 13  1  0
 11 29  1  0
 12 14  1  0
 12 30  1  0
 13 15  1  0
 13 31  1  0
 14 20  1  0
 14 28  1  0
 15 21  1  0
 15 28  1  0
 20 32  1  0
 21 33  1  0
 26 33  2  0
 27 33  2  0
  1 34  1  0
  2 35  1  0
  3 36  1  0
  4 37  1  0
  5 38  1  0
 11 39  1  0
 12 40  1  0
 13 41  1  0
 14 42  1  0
 15 43  1  0
 16 44  1  0
 16 45  1  0
 16 46  1  0
 17 47  1  0
 17 48  1  0
 17 49  1  0
 18 50  1  0
 18 51  1  0
 18 52  1  0
 19 53  1  0
 19 54  1  0
 19 55  1  0
 20 56  1  0
 20 57  1  0
 21 58  1  0
M  END
> <Name>
BR010118

$$$$
BR010119
  SciTegic05062102053D

 61 62  0  0  1  0            999 V2000
    0.7508   -1.5017   -5.6029 C   0  0
   -0.6134    0.4478   -5.1840 C   0  0
    0.0205   -2.2168   -4.6538 C   0  0
   -1.3438   -0.2673   -4.2349 C   0  0
    0.4339   -0.1694   -5.8680 C   0  0
   -1.0268   -1.5996   -3.9698 C   0  0
   -0.3476    1.6354    3.2853 C   0  0
    2.9765    1.0515    1.3229 C   0  0
   -1.9546   -1.8069    2.4535 C   0  0
    3.0134    3.5008   -2.2806 C   0  0
   -0.3897    0.5719    1.1755 C   0  0  1  0  0  0
    0.8017    1.1431    0.4033 C   0  0  2  0  0  0
   -0.7797   -0.8152    0.6591 C   0  0  2  0  0  0
    0.5289    1.0782   -1.1043 C   0  0  1  0  0  0
   -0.9115   -0.8070   -0.8675 C   0  0  2  0  0  0
    1.2151    0.5956   -6.8823 C   0  0
    0.0373    1.4255    4.7184 C   0  0
    4.1166    0.1180    1.5965 C   0  0
   -3.3349   -2.1210    2.9458 C   0  0
    3.1798    4.9199   -1.8283 C   0  0
    1.7060    1.5616   -1.9427 C   0  0
   -1.0783   -2.2005   -1.3460 N   0  0
   -0.8360    2.6699    2.8515 O   0  0
    2.9823    2.2418    1.6064 O   0  0
   -0.9303   -2.0856    3.0618 O   0  0
    3.7144    2.9652   -3.1285 O   0  0
   -3.2676   -1.8999   -2.6664 O   0  0
   -1.8228   -3.9109   -3.1052 O   0  0
    0.2561   -0.2749   -1.4898 O   0  0
   -0.0704    0.5095    2.5629 O   0  0
    1.9602    0.3684    0.7218 O   0  0
   -2.0295   -1.1744    1.2457 O   0  0
    1.9746    2.9118   -1.6094 O   0  0
   -1.9540   -2.5063   -2.7685 S   0  0
    1.5653   -1.9908   -6.1306 H   0  0
   -0.8672    1.4855   -5.3837 H   0  0
    0.2760   -3.2541   -4.4544 H   0  0
   -2.1575    0.2235   -3.7075 H   0  0
   -1.2448    1.2529    1.0780 H   0  0
    0.9985    2.1703    0.7310 H   0  0
   -0.0375   -1.5521    0.9913 H   0  0
   -0.3450    1.6952   -1.3502 H   0  0
   -1.7951   -0.2417   -1.1890 H   0  0
    0.7596    0.4899   -7.8745 H   0  0
    1.2569    1.6633   -6.6307 H   0  0
    2.2528    0.2413   -6.9362 H   0  0
   -0.8090    1.0129    5.2731 H   0  0
    0.3617    2.3721    5.1579 H   0  0
    0.8678    0.7154    4.7706 H   0  0
    3.9993   -0.3306    2.5860 H   0  0
    5.0636    0.6593    1.5284 H   0  0
    4.1183   -0.6810    0.8494 H   0  0
   -3.7129   -1.2894    3.5456 H   0  0
   -3.3186   -3.0432    3.5321 H   0  0
   -4.0011   -2.2648    2.0902 H   0  0
    2.5708    5.5810   -2.4497 H   0  0
    4.2337    5.2046   -1.8803 H   0  0
    2.8458    5.0113   -0.7907 H   0  0
    1.4613    1.4954   -3.0035 H   0  0
    2.5887    0.9570   -1.7317 H   0  0
   -0.3527   -2.8553   -1.0483 H   0  0
  1  3  2  0
  1  5  1  0
  2  4  1  0
  2  5  2  0
  3  6  1  0
  4  6  2  0
  5 16  1  0
  6 34  1  0
  7 17  1  0
  7 23  2  0
  7 30  1  0
  8 18  1  0
  8 24  2  0
  8 31  1  0
  9 19  1  0
  9 25  2  0
  9 32  1  0
 10 20  1  0
 10 26  2  0
 10 33  1  0
 11 12  1  0
 11 13  1  0
 11 30  1  0
 12 14  1  0
 12 31  1  0
 13 15  1  0
 13 32  1  0
 14 21  1  0
 14 29  1  0
 15 22  1  0
 15 29  1  0
 21 33  1  0
 22 34  1  0
 27 34  2  0
 28 34  2  0
  1 35  1  0
  2 36  1  0
  3 37  1  0
  4 38  1  0
 11 39  1  0
 12 40  1  0
 13 41  1  0
 14 42  1  0
 15 43  1  0
 16 44  1  0
 16 45  1  0
 16 46  1  0
 17 47  1  0
 17 48  1  0
 17 49  1  0
 18 50  1  0
 18 51  1  0
 18 52  1  0
 19 53  1  0
 19 54  1  0
 19 55  1  0
 20 56  1  0
 20 57  1  0
 20 58  1  0
 21 59  1  0
 21 60  1  0
 22 61  1  0
M  END
> <Name>
BR010119

$$$$
BR010120
  SciTegic05062102053D

 30 30  0  0  1  0            999 V2000
   -2.3403   -2.7360   -1.5155 C   0  0
   -0.3897    0.5719    1.1755 C   0  0  1  0  0  0
    0.8017    1.1431    0.4033 C   0  0  2  0  0  0
   -0.7797   -0.8152    0.6591 C   0  0  2  0  0  0
    0.5289    1.0782   -1.1043 C   0  0  1  0  0  0
   -0.9115   -0.8070   -0.8675 C   0  0  2  0  0  0
   -2.2962   -4.1263   -2.0574 C   0  0
    1.7058    1.5616   -1.9429 C   0  0
   -1.0972   -2.1439   -1.3710 N   0  0
   -3.4217   -2.2267   -1.2458 O   0  0
    0.2561   -0.2749   -1.4898 O   0  0
   -0.0700    0.5093    2.5626 O   0  0
    1.9603    0.3683    0.7217 O   0  0
   -2.0284   -1.1739    1.2482 O   0  0
    1.2333    1.8947   -3.2360 O   0  0
   -1.2441    1.2536    1.0780 H   0  0
    0.9986    2.1701    0.7312 H   0  0
   -0.0371   -1.5527    0.9887 H   0  0
   -0.3448    1.6956   -1.3501 H   0  0
   -1.7918   -0.2367   -1.1875 H   0  0
   -2.2190   -4.8852   -1.2623 H   0  0
   -3.2064   -4.3868   -2.6212 H   0  0
   -1.4603   -4.3387   -2.7428 H   0  0
    2.4544    0.7728   -2.0261 H   0  0
    2.1533    2.4448   -1.4854 H   0  0
   -0.2731   -2.6801   -1.6337 H   0  0
    0.1214    1.4177    2.8436 H   0  0
    2.6922    0.7547    0.2187 H   0  0
   -2.6667   -0.4987    0.9719 H   0  0
    2.0004    2.1992   -3.7500 H   0  0
  1  7  1  0
  1  9  1  0
  1 10  2  0
  2  3  1  0
  2  4  1  0
  2 12  1  0
  3  5  1  0
  3 13  1  0
  4  6  1  0
  4 14  1  0
  5  8  1  0
  5 11  1  0
  6  9  1  0
  6 11  1  0
  8 15  1  0
  2 16  1  0
  3 17  1  0
  4 18  1  0
  5 19  1  0
  6 20  1  0
  7 21  1  0
  7 22  1  0
  7 23  1  0
  8 24  1  0
  8 25  1  0
  9 26  1  0
 12 27  1  0
 13 28  1  0
 14 29  1  0
 15 30  1  0
M  END
> <Name>
BR010120

$$$$
BR010121
  SciTegic05062102053D

 37 38  0  0  1  0            999 V2000
   -2.4150   -6.7306   -2.9951 C   0  0
   -3.4701   -6.2528   -2.2178 C   0  0
   -1.3398   -5.8960   -3.3001 C   0  0
   -3.4499   -4.9405   -1.7456 C   0  0
   -1.3196   -4.5837   -2.8279 C   0  0
   -2.3747   -4.1059   -2.0506 C   0  0
   -2.3533   -2.7081   -1.5477 C   0  0
   -0.3897    0.5719    1.1755 C   0  0  1  0  0  0
    0.8017    1.1431    0.4033 C   0  0  2  0  0  0
   -0.7797   -0.8152    0.6591 C   0  0  2  0  0  0
    0.5289    1.0782   -1.1043 C   0  0  1  0  0  0
   -0.9115   -0.8070   -0.8675 C   0  0  2  0  0  0
    1.7058    1.5616   -1.9429 C   0  0
   -1.0972   -2.1439   -1.3710 N   0  0
   -3.4155   -2.1432   -1.3003 O   0  0
    0.2561   -0.2749   -1.4898 O   0  0
   -0.0700    0.5093    2.5626 O   0  0
    1.9603    0.3683    0.7217 O   0  0
   -2.0284   -1.1739    1.2482 O   0  0
    1.2333    1.8947   -3.2360 O   0  0
   -2.4308   -7.7524   -3.3628 H   0  0
   -4.3073   -6.9027   -1.9805 H   0  0
   -0.5181   -6.2681   -3.9051 H   0  0
   -4.2773   -4.5785   -1.1406 H   0  0
   -0.4767   -3.9423   -3.0720 H   0  0
   -1.2441    1.2536    1.0780 H   0  0
    0.9986    2.1701    0.7312 H   0  0
   -0.0371   -1.5527    0.9887 H   0  0
   -0.3448    1.6956   -1.3501 H   0  0
   -1.7918   -0.2367   -1.1875 H   0  0
    2.4544    0.7728   -2.0261 H   0  0
    2.1533    2.4448   -1.4854 H   0  0
   -0.2620   -2.6990   -1.5391 H   0  0
    0.1214    1.4177    2.8436 H   0  0
    2.6922    0.7547    0.2187 H   0  0
   -2.6667   -0.4987    0.9719 H   0  0
    2.0004    2.1992   -3.7500 H   0  0
  1  2  2  0
  1  3  1  0
  2  4  1  0
  3  5  2  0
  4  6  2  0
  5  6  1  0
  6  7  1  0
  7 14  1  0
  7 15  2  0
  8  9  1  0
  8 10  1  0
  8 17  1  0
  9 11  1  0
  9 18  1  0
 10 12  1  0
 10 19  1  0
 11 13  1  0
 11 16  1  0
 12 14  1  0
 12 16  1  0
 13 20  1  0
  1 21  1  0
  2 22  1  0
  3 23  1  0
  4 24  1  0
  5 25  1  0
  8 26  1  0
  9 27  1  0
 10 28  1  0
 11 29  1  0
 12 30  1  0
 13 31  1  0
 13 32  1  0
 14 33  1  0
 17 34  1  0
 18 35  1  0
 19 36  1  0
 20 37  1  0
M  END
> <Name>
BR010121

$$$$
BR010122
  SciTegic05062102053D

 31 31  0  0  1  0            999 V2000
   -0.3897    0.5719    1.1755 C   0  0  1  0  0  0
    0.8017    1.1431    0.4033 C   0  0  2  0  0  0
   -0.7797   -0.8152    0.6591 C   0  0  2  0  0  0
    0.5289    1.0782   -1.1043 C   0  0  1  0  0  0
   -0.9115   -0.8070   -0.8675 C   0  0  2  0  0  0
   -0.7058   -2.1865   -4.0001 C   0  0
    1.7060    1.5616   -1.9427 C   0  0
   -1.0783   -2.2005   -1.3460 N   0  0
   -2.9844   -1.4663   -2.9327 O   0  0
   -2.2983   -3.8902   -2.8311 O   0  0
    0.2561   -0.2749   -1.4898 O   0  0
   -0.0704    0.5095    2.5629 O   0  0
    1.9602    0.3684    0.7218 O   0  0
   -2.0295   -1.1744    1.2457 O   0  0
    1.2336    1.8947   -3.2359 O   0  0
   -1.9608   -2.4808   -2.7752 S   0  0
   -1.2448    1.2529    1.0780 H   0  0
    0.9985    2.1703    0.7310 H   0  0
   -0.0375   -1.5521    0.9913 H   0  0
   -0.3450    1.6952   -1.3502 H   0  0
   -1.7951   -0.2417   -1.1890 H   0  0
   -1.1464   -2.3353   -4.9872 H   0  0
   -0.3512   -1.1606   -3.8902 H   0  0
    0.1091   -2.8928   -3.8346 H   0  0
    2.4545    0.7728   -2.0259 H   0  0
    2.1534    2.4447   -1.4852 H   0  0
   -0.2603   -2.7927   -1.1719 H   0  0
    0.1207    1.4179    2.8437 H   0  0
    2.6922    0.7548    0.2188 H   0  0
   -2.6674   -0.4993    0.9683 H   0  0
    2.0008    2.1992   -3.7498 H   0  0
  1  2  1  0
  1  3  1  0
  1 12  1  0
  2  4  1  0
  2 13  1  0
  3  5  1  0
  3 14  1  0
  4  7  1  0
  4 11  1  0
  5  8  1  0
  5 11  1  0
  6 16  1  0
  7 15  1  0
  8 16  1  0
  9 16  2  0
 10 16  2  0
  1 17  1  0
  2 18  1  0
  3 19  1  0
  4 20  1  0
  5 21  1  0
  6 22  1  0
  6 23  1  0
  6 24  1  0
  7 25  1  0
  7 26  1  0
  8 27  1  0
 12 28  1  0
 13 29  1  0
 14 30  1  0
 15 31  1  0
M  END
> <Name>
BR010122

$$$$
BR010123
  SciTegic05062102053D

 38 39  0  0  1  0            999 V2000
    0.4334   -0.1709   -5.8696 C   0  0
    0.7505   -1.5029   -5.6034 C   0  0
   -0.6138    0.4468   -5.1858 C   0  0
    0.0204   -2.2172   -4.6535 C   0  0
   -1.3439   -0.2676   -4.2359 C   0  0
   -1.0268   -1.5996   -3.9698 C   0  0
   -0.3897    0.5719    1.1755 C   0  0  1  0  0  0
    0.8017    1.1431    0.4033 C   0  0  2  0  0  0
   -0.7797   -0.8152    0.6591 C   0  0  2  0  0  0
    0.5289    1.0782   -1.1043 C   0  0  1  0  0  0
   -0.9115   -0.8070   -0.8675 C   0  0  2  0  0  0
    1.7060    1.5616   -1.9427 C   0  0
   -1.0783   -2.2005   -1.3460 N   0  0
   -3.2676   -1.8999   -2.6664 O   0  0
   -1.8228   -3.9109   -3.1052 O   0  0
    0.2561   -0.2749   -1.4898 O   0  0
   -0.0704    0.5095    2.5629 O   0  0
    1.9602    0.3684    0.7218 O   0  0
   -2.0295   -1.1744    1.2457 O   0  0
    1.2336    1.8947   -3.2359 O   0  0
   -1.9540   -2.5063   -2.7685 S   0  0
    1.0011    0.3857   -6.6096 H   0  0
    1.5651   -1.9845   -6.1363 H   0  0
   -0.8609    1.4836   -5.3938 H   0  0
    0.2753   -3.2548   -4.4545 H   0  0
   -2.1585    0.2231   -3.7102 H   0  0
   -1.2448    1.2529    1.0780 H   0  0
    0.9985    2.1703    0.7310 H   0  0
   -0.0375   -1.5521    0.9913 H   0  0
   -0.3450    1.6952   -1.3502 H   0  0
   -1.7951   -0.2417   -1.1890 H   0  0
    2.4545    0.7728   -2.0259 H   0  0
    2.1534    2.4447   -1.4852 H   0  0
   -0.3527   -2.8553   -1.0483 H   0  0
    0.1207    1.4179    2.8437 H   0  0
    2.6922    0.7548    0.2188 H   0  0
   -2.6674   -0.4993    0.9683 H   0  0
    2.0008    2.1992   -3.7498 H   0  0
  1  2  1  0
  1  3  2  0
  2  4  2  0
  3  5  1  0
  4  6  1  0
  5  6  2  0
  6 21  1  0
  7  8  1  0
  7  9  1  0
  7 17  1  0
  8 10  1  0
  8 18  1  0
  9 11  1  0
  9 19  1  0
 10 12  1  0
 10 16  1  0
 11 13  1  0
 11 16  1  0
 12 20  1  0
 13 21  1  0
 14 21  2  0
 15 21  2  0
  1 22  1  0
  2 23  1  0
  3 24  1  0
  4 25  1  0
  5 26  1  0
  7 27  1  0
  8 28  1  0
  9 29  1  0
 10 30  1  0
 11 31  1  0
 12 32  1  0
 12 33  1  0
 13 34  1  0
 17 35  1  0
 18 36  1  0
 19 37  1  0
 20 38  1  0
M  END
> <Name>
BR010123

$$$$
BR010124
  SciTegic05062102053D

 41 42  0  0  1  0            999 V2000
    0.7508   -1.5017   -5.6029 C   0  0
   -0.6134    0.4478   -5.1840 C   0  0
    0.0205   -2.2168   -4.6538 C   0  0
   -1.3438   -0.2673   -4.2349 C   0  0
    0.4339   -0.1694   -5.8680 C   0  0
   -1.0268   -1.5996   -3.9698 C   0  0
   -0.3897    0.5719    1.1755 C   0  0  1  0  0  0
    0.8017    1.1431    0.4033 C   0  0  2  0  0  0
   -0.7797   -0.8152    0.6591 C   0  0  2  0  0  0
    0.5289    1.0782   -1.1043 C   0  0  1  0  0  0
   -0.9115   -0.8070   -0.8675 C   0  0  2  0  0  0
    1.2151    0.5956   -6.8823 C   0  0
    1.7060    1.5616   -1.9427 C   0  0
   -1.0783   -2.2005   -1.3460 N   0  0
   -3.2676   -1.8999   -2.6664 O   0  0
   -1.8228   -3.9109   -3.1052 O   0  0
    0.2561   -0.2749   -1.4898 O   0  0
   -0.0704    0.5095    2.5629 O   0  0
    1.9602    0.3684    0.7218 O   0  0
   -2.0295   -1.1744    1.2457 O   0  0
    1.2336    1.8947   -3.2359 O   0  0
   -1.9540   -2.5063   -2.7685 S   0  0
    1.5653   -1.9908   -6.1306 H   0  0
   -0.8672    1.4855   -5.3837 H   0  0
    0.2760   -3.2541   -4.4544 H   0  0
   -2.1575    0.2235   -3.7075 H   0  0
   -1.2448    1.2529    1.0780 H   0  0
    0.9985    2.1703    0.7310 H   0  0
   -0.0375   -1.5521    0.9913 H   0  0
   -0.3450    1.6952   -1.3502 H   0  0
   -1.7951   -0.2417   -1.1890 H   0  0
    0.7596    0.4899   -7.8745 H   0  0
    1.2569    1.6633   -6.6307 H   0  0
    2.2528    0.2413   -6.9362 H   0  0
    2.4545    0.7728   -2.0259 H   0  0
    2.1534    2.4447   -1.4852 H   0  0
   -0.3527   -2.8553   -1.0483 H   0  0
    0.1207    1.4179    2.8437 H   0  0
    2.6922    0.7548    0.2188 H   0  0
   -2.6674   -0.4993    0.9683 H   0  0
    2.0008    2.1992   -3.7498 H   0  0
  1  3  2  0
  1  5  1  0
  2  4  1  0
  2  5  2  0
  3  6  1  0
  4  6  2  0
  5 12  1  0
  6 22  1  0
  7  8  1  0
  7  9  1  0
  7 18  1  0
  8 10  1  0
  8 19  1  0
  9 11  1  0
  9 20  1  0
 10 13  1  0
 10 17  1  0
 11 14  1  0
 11 17  1  0
 13 21  1  0
 14 22  1  0
 15 22  2  0
 16 22  2  0
  1 23  1  0
  2 24  1  0
  3 25  1  0
  4 26  1  0
  7 27  1  0
  8 28  1  0
  9 29  1  0
 10 30  1  0
 11 31  1  0
 12 32  1  0
 12 33  1  0
 12 34  1  0
 13 35  1  0
 13 36  1  0
 14 37  1  0
 18 38  1  0
 19 39  1  0
 20 40  1  0
 21 41  1  0
M  END
> <Name>
BR010124

$$$$
BR010125
  SciTegic05062102053D

 56 57  0  0  1  0            999 V2000
    4.7984   -4.1531   -4.1872 C   0  0
    5.3157   -2.6067   -5.9700 C   0  0
    3.6057   -3.4724   -3.9429 C   0  0
    4.1230   -1.9260   -5.7256 C   0  0
    5.6534   -3.7202   -5.2008 C   0  0
    3.2680   -2.3589   -4.7121 C   0  0
    6.8969   -4.4299   -5.4558 C   0  0
   -0.1514    2.7277   -1.1123 C   0  0
   -2.1676   -0.5982   -0.6712 C   0  0
    1.6033    1.0954   -5.3880 C   0  0
   -0.0513   -3.2307    2.0855 C   0  0
    0.7233    0.6893   -1.9268 C   0  0  1  0  0  0
    0.1626   -0.3970   -1.0083 C   0  0  2  0  0  0
    1.0679    0.1207   -3.3030 C   0  0  2  0  0  0
    1.1199   -1.5934   -0.9760 C   0  0  1  0  0  0
    1.9375   -1.1315   -3.1696 C   0  0  1  0  0  0
   -1.2083    3.7587   -1.3695 C   0  0
   -3.4304   -1.0693   -1.3265 C   0  0
    2.4078    2.1903   -6.0204 C   0  0
   -0.1861   -2.6172    3.4462 C   0  0
    0.5950   -2.7518   -0.1363 C   0  0
    7.6942   -4.0970   -6.3371 O   0  0
    0.6512    2.7844   -0.1904 O   0  0
   -2.1187   -0.1064    0.4481 O   0  0
    0.8996    0.3135   -6.0130 O   0  0
   -0.3267   -4.3949    1.8285 O   0  0
    1.3267   -2.0883   -2.3049 O   0  0
    2.0984   -1.6910   -4.4725 O   0  0
   -0.2303    1.7405   -2.0532 O   0  0
   -1.1121   -0.8043   -1.5106 O   0  0
    1.7818    1.1166   -4.0347 O   0  0
    0.4192   -2.3021    1.1952 O   0  0
    5.0509   -5.0197   -3.5816 H   0  0
    5.9751   -2.2615   -6.7622 H   0  0
    2.9439   -3.8144   -3.1518 H   0  0
    3.8654   -1.0590   -6.3279 H   0  0
    7.1230   -5.3115   -4.8172 H   0  0
    1.6205    1.1273   -1.4713 H   0  0
   -0.0004    0.0130   -0.0050 H   0  0
    0.1516   -0.0940   -3.8664 H   0  0
    2.0891   -1.2829   -0.5645 H   0  0
    2.9371   -0.8744   -2.7968 H   0  0
   -0.8169    4.5334   -2.0335 H   0  0
   -1.5403    4.1936   -0.4233 H   0  0
   -2.0667    3.2849   -1.8544 H   0  0
   -3.8817   -0.2512   -1.8932 H   0  0
   -4.1244   -1.4424   -0.5691 H   0  0
   -3.1981   -1.8852   -2.0171 H   0  0
    1.8094    3.1026   -6.0813 H   0  0
    2.7399    1.8799   -7.0143 H   0  0
    3.2904    2.3927   -5.4066 H   0  0
    0.7455   -2.7423    4.0034 H   0  0
   -1.0200   -3.0794    3.9806 H   0  0
   -0.3897   -1.5473    3.3430 H   0  0
    1.3108   -3.5747   -0.1460 H   0  0
   -0.3628   -3.0945   -0.5293 H   0  0
  1  3  2  0
  1  5  1  0
  2  4  1  0
  2  5  2  0
  3  6  1  0
  4  6  2  0
  5  7  1  0
  6 28  1  0
  7 22  2  0
  8 17  1  0
  8 23  2  0
  8 29  1  0
  9 18  1  0
  9 24  2  0
  9 30  1  0
 10 19  1  0
 10 25  2  0
 10 31  1  0
 11 20  1  0
 11 26  2  0
 11 32  1  0
 12 13  1  0
 12 14  1  0
 12 29  1  0
 13 15  1  0
 13 30  1  0
 14 16  1  0
 14 31  1  0
 15 21  1  0
 15 27  1  0
 16 27  1  0
 16 28  1  0
 21 32  1  0
  1 33  1  0
  2 34  1  0
  3 35  1  0
  4 36  1  0
  7 37  1  0
 12 38  1  0
 13 39  1  0
 14 40  1  0
 15 41  1  0
 16 42  1  0
 17 43  1  0
 17 44  1  0
 17 45  1  0
 18 46  1  0
 18 47  1  0
 18 48  1  0
 19 49  1  0
 19 50  1  0
 19 51  1  0
 20 52  1  0
 20 53  1  0
 20 54  1  0
 21 55  1  0
 21 56  1  0
M  END
> <Name>
BR010125

$$$$
BR010126
  SciTegic05062102053D

 60 61  0  0  1  0            999 V2000
    4.7984   -4.1531   -4.1872 C   0  0
    5.3157   -2.6067   -5.9700 C   0  0
    3.6057   -3.4724   -3.9429 C   0  0
    4.1230   -1.9260   -5.7256 C   0  0
    5.6534   -3.7202   -5.2008 C   0  0
    3.2680   -2.3589   -4.7121 C   0  0
    6.8969   -4.4299   -5.4558 C   0  0
   -0.1514    2.7277   -1.1123 C   0  0
   -2.1676   -0.5982   -0.6712 C   0  0
    1.6033    1.0954   -5.3880 C   0  0
   -0.0513   -3.2307    2.0855 C   0  0
    0.7233    0.6893   -1.9268 C   0  0  1  0  0  0
    0.1626   -0.3970   -1.0083 C   0  0  2  0  0  0
    1.0679    0.1207   -3.3030 C   0  0  2  0  0  0
    1.1199   -1.5934   -0.9760 C   0  0  1  0  0  0
    1.9375   -1.1315   -3.1696 C   0  0  1  0  0  0
   -1.2083    3.7587   -1.3695 C   0  0
   -3.4304   -1.0693   -1.3265 C   0  0
    2.4078    2.1903   -6.0204 C   0  0
   -0.1861   -2.6172    3.4462 C   0  0
    8.8454   -4.4736   -6.8320 C   0  0
    0.5950   -2.7518   -0.1363 C   0  0
    7.2771   -5.4253   -4.8253 O   0  0
    0.6512    2.7844   -0.1904 O   0  0
   -2.1187   -0.1064    0.4481 O   0  0
    0.8996    0.3135   -6.0130 O   0  0
   -0.3267   -4.3949    1.8285 O   0  0
    1.3267   -2.0883   -2.3049 O   0  0
    2.0984   -1.6910   -4.4725 O   0  0
    7.5989   -3.8616   -6.4836 O   0  0
   -0.2303    1.7405   -2.0532 O   0  0
   -1.1121   -0.8043   -1.5106 O   0  0
    1.7818    1.1166   -4.0347 O   0  0
    0.4192   -2.3021    1.1952 O   0  0
    5.0509   -5.0197   -3.5816 H   0  0
    5.9751   -2.2615   -6.7622 H   0  0
    2.9439   -3.8144   -3.1518 H   0  0
    3.8654   -1.0590   -6.3279 H   0  0
    1.6205    1.1273   -1.4713 H   0  0
   -0.0004    0.0130   -0.0050 H   0  0
    0.1516   -0.0940   -3.8664 H   0  0
    2.0891   -1.2829   -0.5645 H   0  0
    2.9371   -0.8744   -2.7968 H   0  0
   -0.8169    4.5334   -2.0335 H   0  0
   -1.5403    4.1936   -0.4233 H   0  0
   -2.0667    3.2849   -1.8544 H   0  0
   -3.8817   -0.2512   -1.8932 H   0  0
   -4.1244   -1.4424   -0.5691 H   0  0
   -3.1981   -1.8852   -2.0171 H   0  0
    1.8094    3.1026   -6.0813 H   0  0
    2.7399    1.8799   -7.0143 H   0  0
    3.2904    2.3927   -5.4066 H   0  0
    0.7455   -2.7423    4.0034 H   0  0
   -1.0200   -3.0794    3.9806 H   0  0
   -0.3897   -1.5473    3.3430 H   0  0
    9.3014   -3.9271   -7.6612 H   0  0
    8.6740   -5.5144   -7.1180 H   0  0
    9.5117   -4.4406   -5.9667 H   0  0
    1.3108   -3.5747   -0.1460 H   0  0
   -0.3628   -3.0945   -0.5293 H   0  0
  1  3  2  0
  1  5  1  0
  2  4  1  0
  2  5  2  0
  3  6  1  0
  4  6  2  0
  5  7  1  0
  6 29  1  0
  7 23  2  0
  7 30  1  0
  8 17  1  0
  8 24  2  0
  8 31  1  0
  9 18  1  0
  9 25  2  0
  9 32  1  0
 10 19  1  0
 10 26  2  0
 10 33  1  0
 11 20  1  0
 11 27  2  0
 11 34  1  0
 12 13  1  0
 12 14  1  0
 12 31  1  0
 13 15  1  0
 13 32  1  0
 14 16  1  0
 14 33  1  0
 15 22  1  0
 15 28  1  0
 16 28  1  0
 16 29  1  0
 21 30  1  0
 22 34  1  0
  1 35  1  0
  2 36  1  0
  3 37  1  0
  4 38  1  0
 12 39  1  0
 13 40  1  0
 14 41  1  0
 15 42  1  0
 16 43  1  0
 17 44  1  0
 17 45  1  0
 17 46  1  0
 18 47  1  0
 18 48  1  0
 18 49  1  0
 19 50  1  0
 19 51  1  0
 19 52  1  0
 20 53  1  0
 20 54  1  0
 20 55  1  0
 21 56  1  0
 21 57  1  0
 21 58  1  0
 22 59  1  0
 22 60  1  0
M  END
> <Name>
BR010126

$$$$
BR010127
  SciTegic05062102053D

 60 61  0  0  1  0            999 V2000
    4.7834   -4.1606   -4.1697 C   0  0
    3.5938   -3.4709   -3.9356 C   0  0
    5.3214   -2.6262   -5.9567 C   0  0
    5.6472   -3.7382   -5.1803 C   0  0
    3.2680   -2.3589   -4.7121 C   0  0
    4.1317   -1.9365   -5.7226 C   0  0
    6.8885   -4.4561   -5.4229 C   0  0
   -0.1514    2.7277   -1.1123 C   0  0
   -2.1676   -0.5982   -0.6712 C   0  0
    1.0128    1.9772   -4.7638 C   0  0
   -0.0513   -3.2307    2.0855 C   0  0
    0.7233    0.6893   -1.9268 C   0  0  1  0  0  0
    0.1626   -0.3970   -1.0083 C   0  0  2  0  0  0
    1.0679    0.1207   -3.3030 C   0  0  2  0  0  0
    1.1199   -1.5934   -0.9760 C   0  0  1  0  0  0
    1.9375   -1.1315   -3.1696 C   0  0  1  0  0  0
   -1.2083    3.7587   -1.3695 C   0  0
   -3.4304   -1.0693   -1.3265 C   0  0
    1.8918    2.9615   -5.4741 C   0  0
   -0.1861   -2.6172    3.4462 C   0  0
    3.0789   -1.0858   -7.6780 C   0  0
    0.5950   -2.7518   -0.1363 C   0  0
    7.2339   -5.4446   -4.7697 O   0  0
    0.6512    2.7844   -0.1904 O   0  0
   -2.1187   -0.1064    0.4481 O   0  0
   -0.2082    1.9681   -4.8419 O   0  0
   -0.3267   -4.3949    1.8285 O   0  0
    1.3267   -2.0883   -2.3049 O   0  0
    2.0984   -1.6910   -4.4725 O   0  0
    3.8260   -0.8505   -6.4862 O   0  0
   -0.2303    1.7405   -2.0532 O   0  0
   -1.1121   -0.8043   -1.5106 O   0  0
    1.7818    1.1166   -4.0347 O   0  0
    0.4192   -2.3021    1.1952 O   0  0
    5.0271   -5.0257   -3.5585 H   0  0
    2.9250   -3.8051   -3.1472 H   0  0
    5.9938   -2.2928   -6.7438 H   0  0
    7.5446   -4.0822   -6.2389 H   0  0
    1.6205    1.1273   -1.4713 H   0  0
   -0.0004    0.0130   -0.0050 H   0  0
    0.1516   -0.0940   -3.8664 H   0  0
    2.0891   -1.2829   -0.5645 H   0  0
    2.9371   -0.8744   -2.7968 H   0  0
   -0.8169    4.5334   -2.0335 H   0  0
   -1.5403    4.1936   -0.4233 H   0  0
   -2.0667    3.2849   -1.8544 H   0  0
   -3.8817   -0.2512   -1.8932 H   0  0
   -4.1244   -1.4424   -0.5691 H   0  0
   -3.1981   -1.8852   -2.0171 H   0  0
    2.0530    3.8384   -4.8422 H   0  0
    1.4342    3.2496   -6.4239 H   0  0
    2.8609    2.4984   -5.6816 H   0  0
    0.7455   -2.7423    4.0034 H   0  0
   -1.0200   -3.0794    3.9806 H   0  0
   -0.3897   -1.5473    3.3430 H   0  0
    2.9034   -0.1376   -8.1921 H   0  0
    2.1259   -1.5570   -7.4247 H   0  0
    3.6500   -1.7509   -8.3301 H   0  0
    1.3108   -3.5747   -0.1460 H   0  0
   -0.3628   -3.0945   -0.5293 H   0  0
  1  2  1  0
  1  4  2  0
  2  5  2  0
  3  4  1  0
  3  6  2  0
  4  7  1  0
  5  6  1  0
  5 29  1  0
  6 30  1  0
  7 23  2  0
  8 17  1  0
  8 24  2  0
  8 31  1  0
  9 18  1  0
  9 25  2  0
  9 32  1  0
 10 19  1  0
 10 26  2  0
 10 33  1  0
 11 20  1  0
 11 27  2  0
 11 34  1  0
 12 13  1  0
 12 14  1  0
 12 31  1  0
 13 15  1  0
 13 32  1  0
 14 16  1  0
 14 33  1  0
 15 22  1  0
 15 28  1  0
 16 28  1  0
 16 29  1  0
 21 30  1  0
 22 34  1  0
  1 35  1  0
  2 36  1  0
  3 37  1  0
  7 38  1  0
 12 39  1  0
 13 40  1  0
 14 41  1  0
 15 42  1  0
 16 43  1  0
 17 44  1  0
 17 45  1  0
 17 46  1  0
 18 47  1  0
 18 48  1  0
 18 49  1  0
 19 50  1  0
 19 51  1  0
 19 52  1  0
 20 53  1  0
 20 54  1  0
 20 55  1  0
 21 56  1  0
 21 57  1  0
 21 58  1  0
 22 59  1  0
 22 60  1  0
M  END
> <Name>
BR010127

$$$$
BR010128
  SciTegic05062102053D

 56 57  0  0  1  0            999 V2000
    4.7978   -4.1534   -4.1869 C   0  0
    5.3156   -2.6076   -5.9700 C   0  0
    3.6054   -3.4723   -3.9427 C   0  0
    4.1231   -1.9264   -5.7257 C   0  0
    5.6530   -3.7210   -5.2006 C   0  0
    3.2680   -2.3589   -4.7121 C   0  0
   -0.1514    2.7277   -1.1123 C   0  0
   -2.1676   -0.5982   -0.6712 C   0  0
    1.6033    1.0954   -5.3880 C   0  0
   -0.0513   -3.2307    2.0855 C   0  0
    0.7233    0.6893   -1.9268 C   0  0  1  0  0  0
    0.1626   -0.3970   -1.0083 C   0  0  2  0  0  0
    1.0679    0.1207   -3.3030 C   0  0  2  0  0  0
    1.1199   -1.5934   -0.9760 C   0  0  1  0  0  0
    1.9375   -1.1315   -3.1696 C   0  0  1  0  0  0
   -1.2083    3.7587   -1.3695 C   0  0
   -3.4304   -1.0693   -1.3265 C   0  0
    2.4078    2.1903   -6.0204 C   0  0
   -0.1861   -2.6172    3.4462 C   0  0
    0.5950   -2.7518   -0.1363 C   0  0
    6.8671   -4.4140   -5.4493 N   0  3
    7.1520   -5.4132   -4.7458 O   0  5
    0.6512    2.7844   -0.1904 O   0  0
   -2.1187   -0.1064    0.4481 O   0  0
    0.8996    0.3135   -6.0130 O   0  0
   -0.3267   -4.3949    1.8285 O   0  0
    7.6217   -4.0085   -6.3661 O   0  0
    1.3267   -2.0883   -2.3049 O   0  0
    2.0984   -1.6910   -4.4725 O   0  0
   -0.2303    1.7405   -2.0532 O   0  0
   -1.1121   -0.8043   -1.5106 O   0  0
    1.7818    1.1166   -4.0347 O   0  0
    0.4192   -2.3021    1.1952 O   0  0
    5.0487   -5.0201   -3.5802 H   0  0
    5.9731   -2.2594   -6.7628 H   0  0
    2.9431   -3.8141   -3.1519 H   0  0
    3.8659   -1.0595   -6.3282 H   0  0
    1.6205    1.1273   -1.4713 H   0  0
   -0.0004    0.0130   -0.0050 H   0  0
    0.1516   -0.0940   -3.8664 H   0  0
    2.0891   -1.2829   -0.5645 H   0  0
    2.9371   -0.8744   -2.7968 H   0  0
   -0.8169    4.5334   -2.0335 H   0  0
   -1.5403    4.1936   -0.4233 H   0  0
   -2.0667    3.2849   -1.8544 H   0  0
   -3.8817   -0.2512   -1.8932 H   0  0
   -4.1244   -1.4424   -0.5691 H   0  0
   -3.1981   -1.8852   -2.0171 H   0  0
    1.8094    3.1026   -6.0813 H   0  0
    2.7399    1.8799   -7.0143 H   0  0
    3.2904    2.3927   -5.4066 H   0  0
    0.7455   -2.7423    4.0034 H   0  0
   -1.0200   -3.0794    3.9806 H   0  0
   -0.3897   -1.5473    3.3430 H   0  0
    1.3108   -3.5747   -0.1460 H   0  0
   -0.3628   -3.0945   -0.5293 H   0  0
  1  3  2  0
  1  5  1  0
  2  4  1  0
  2  5  2  0
  3  6  1  0
  4  6  2  0
  5 21  1  0
  6 29  1  0
  7 16  1  0
  7 23  2  0
  7 30  1  0
  8 17  1  0
  8 24  2  0
  8 31  1  0
  9 18  1  0
  9 25  2  0
  9 32  1  0
 10 19  1  0
 10 26  2  0
 10 33  1  0
 11 12  1  0
 11 13  1  0
 11 30  1  0
 12 14  1  0
 12 31  1  0
 13 15  1  0
 13 32  1  0
 14 20  1  0
 14 28  1  0
 15 28  1  0
 15 29  1  0
 20 33  1  0
 21 22  1  0
 21 27  2  0
  1 34  1  0
  2 35  1  0
  3 36  1  0
  4 37  1  0
 11 38  1  0
 12 39  1  0
 13 40  1  0
 14 41  1  0
 15 42  1  0
 16 43  1  0
 16 44  1  0
 16 45  1  0
 17 46  1  0
 17 47  1  0
 17 48  1  0
 18 49  1  0
 18 50  1  0
 18 51  1  0
 19 52  1  0
 19 53  1  0
 19 54  1  0
 20 55  1  0
 20 56  1  0
M  CHG  2  21   1  22  -1
M  END
> <Name>
BR010128

$$$$
BR010129
  SciTegic05062102053D

 62 63  0  0  1  0            999 V2000
    4.9940   -3.9108   -4.2345 C   0  0
    4.1950   -2.7704   -4.1537 C   0  0
    3.1284   -5.1544   -5.1345 C   0  0
    4.4608   -5.1028   -4.7250 C   0  0
    2.3293   -4.0140   -5.0537 C   0  0
    2.8626   -2.8220   -4.5633 C   0  0
    5.2951   -6.2911   -4.8087 C   0  0
   -0.1514    2.7277   -1.1123 C   0  0
   -2.1676   -0.5982   -0.6712 C   0  0
    1.0128    1.9772   -4.7638 C   0  0
    1.2169   -4.9314    0.5319 C   0  0
    0.7233    0.6893   -1.9268 C   0  0  1  0  0  0
    0.1626   -0.3970   -1.0083 C   0  0  2  0  0  0
    1.0679    0.1207   -3.3030 C   0  0  2  0  0  0
    1.1199   -1.5934   -0.9760 C   0  0  1  0  0  0
    1.9375   -1.1315   -3.1696 C   0  0  1  0  0  0
   -1.2083    3.7587   -1.3695 C   0  0
   -3.4304   -1.0693   -1.3265 C   0  0
    1.8918    2.9615   -5.4741 C   0  0
    2.3025   -5.9557    0.3958 C   0  0
    5.2706   -8.6751   -4.7199 C   0  0
    0.5950   -2.7518   -0.1363 C   0  0
    0.9731   -4.0835   -5.4764 N   0  3
    0.0931   -4.3957   -4.6398 O   0  5
    6.5195   -6.2755   -4.9924 O   0  0
    0.6512    2.7844   -0.1904 O   0  0
   -2.1187   -0.1064    0.4481 O   0  0
   -0.2082    1.9681   -4.8419 O   0  0
    0.1969   -5.0970    1.1871 O   0  0
    0.6980   -3.8302   -6.6730 O   0  0
    1.3267   -2.0883   -2.3049 O   0  0
    2.0984   -1.6910   -4.4725 O   0  0
    4.5589   -7.4344   -4.6578 O   0  0
   -0.2303    1.7405   -2.0532 O   0  0
   -1.1121   -0.8043   -1.5106 O   0  0
    1.7818    1.1166   -4.0347 O   0  0
    1.5405   -3.8057   -0.1784 O   0  0
    6.0310   -3.8599   -3.9125 H   0  0
    4.6174   -1.8448   -3.7724 H   0  0
    2.7156   -6.0856   -5.5174 H   0  0
    1.6205    1.1273   -1.4713 H   0  0
   -0.0004    0.0130   -0.0050 H   0  0
    0.1516   -0.0940   -3.8664 H   0  0
    2.0891   -1.2829   -0.5645 H   0  0
    2.9371   -0.8744   -2.7968 H   0  0
   -0.8169    4.5334   -2.0335 H   0  0
   -1.5403    4.1936   -0.4233 H   0  0
   -2.0667    3.2849   -1.8544 H   0  0
   -3.8817   -0.2512   -1.8932 H   0  0
   -4.1244   -1.4424   -0.5691 H   0  0
   -3.1981   -1.8852   -2.0171 H   0  0
    2.0530    3.8384   -4.8422 H   0  0
    1.4342    3.2496   -6.4239 H   0  0
    2.8609    2.4984   -5.6816 H   0  0
    2.1018   -6.5965   -0.4664 H   0  0
    2.3687   -6.5498    1.3107 H   0  0
    3.2601   -5.4505    0.2393 H   0  0
    4.5714   -9.5042   -4.5857 H   0  0
    6.0338   -8.6979   -3.9380 H   0  0
    5.7507   -8.7610   -5.6975 H   0  0
   -0.3548   -3.1050   -0.5393 H   0  0
    0.4587   -2.4326    0.8975 H   0  0
  1  2  2  0
  1  4  1  0
  2  6  1  0
  3  4  2  0
  3  5  1  0
  4  7  1  0
  5  6  2  0
  5 23  1  0
  6 32  1  0
  7 25  2  0
  7 33  1  0
  8 17  1  0
  8 26  2  0
  8 34  1  0
  9 18  1  0
  9 27  2  0
  9 35  1  0
 10 19  1  0
 10 28  2  0
 10 36  1  0
 11 20  1  0
 11 29  2  0
 11 37  1  0
 12 13  1  0
 12 14  1  0
 12 34  1  0
 13 15  1  0
 13 35  1  0
 14 16  1  0
 14 36  1  0
 15 22  1  0
 15 31  1  0
 16 31  1  0
 16 32  1  0
 21 33  1  0
 22 37  1  0
 23 24  1  0
 23 30  2  0
  1 38  1  0
  2 39  1  0
  3 40  1  0
 12 41  1  0
 13 42  1  0
 14 43  1  0
 15 44  1  0
 16 45  1  0
 17 46  1  0
 17 47  1  0
 17 48  1  0
 18 49  1  0
 18 50  1  0
 18 51  1  0
 19 52  1  0
 19 53  1  0
 19 54  1  0
 20 55  1  0
 20 56  1  0
 20 57  1  0
 21 58  1  0
 21 59  1  0
 21 60  1  0
 22 61  1  0
 22 62  1  0
M  CHG  2  23   1  24  -1
M  END
> <Name>
BR010129

$$$$
BR010130
  SciTegic05062102053D

 61 62  0  0  1  0            999 V2000
    4.7980   -4.1533   -4.1870 C   0  0
    5.3157   -2.6072   -5.9700 C   0  0
    3.6055   -3.4724   -3.9427 C   0  0
    4.1230   -1.9263   -5.7257 C   0  0
    5.6532   -3.7207   -5.2006 C   0  0
    3.2680   -2.3589   -4.7121 C   0  0
    7.3497   -5.5295   -4.7832 C   0  0
   -0.1514    2.7277   -1.1123 C   0  0
   -2.1676   -0.5982   -0.6712 C   0  0
    1.6033    1.0954   -5.3880 C   0  0
   -0.0513   -3.2307    2.0855 C   0  0
    0.7233    0.6893   -1.9268 C   0  0  1  0  0  0
    0.1626   -0.3970   -1.0083 C   0  0  2  0  0  0
    1.0679    0.1207   -3.3030 C   0  0  2  0  0  0
    1.1199   -1.5934   -0.9760 C   0  0  1  0  0  0
    1.9375   -1.1315   -3.1696 C   0  0  1  0  0  0
    8.6780   -5.9639   -5.3503 C   0  0
   -1.2083    3.7587   -1.3695 C   0  0
   -3.4304   -1.0693   -1.3265 C   0  0
    2.4078    2.1903   -6.0204 C   0  0
   -0.1861   -2.6172    3.4462 C   0  0
    0.5950   -2.7518   -0.1363 C   0  0
    6.8461   -4.4017   -5.4450 N   0  0
    6.8324   -6.1425   -3.8550 O   0  0
    0.6512    2.7844   -0.1904 O   0  0
   -2.1187   -0.1064    0.4481 O   0  0
    0.8996    0.3135   -6.0130 O   0  0
   -0.3267   -4.3949    1.8285 O   0  0
    1.3267   -2.0883   -2.3049 O   0  0
    2.0984   -1.6910   -4.4725 O   0  0
   -0.2303    1.7405   -2.0532 O   0  0
   -1.1121   -0.8043   -1.5106 O   0  0
    1.7818    1.1166   -4.0347 O   0  0
    0.4192   -2.3021    1.1952 O   0  0
    5.0510   -5.0199   -3.5814 H   0  0
    5.9744   -2.2611   -6.7624 H   0  0
    2.9434   -3.8142   -3.1518 H   0  0
    3.8656   -1.0595   -6.3283 H   0  0
    1.6205    1.1273   -1.4713 H   0  0
   -0.0004    0.0130   -0.0050 H   0  0
    0.1516   -0.0940   -3.8664 H   0  0
    2.0891   -1.2829   -0.5645 H   0  0
    2.9371   -0.8744   -2.7968 H   0  0
    9.4900   -5.4598   -4.8187 H   0  0
    8.7315   -5.7010   -6.4106 H   0  0
    8.7908   -7.0473   -5.2489 H   0  0
   -0.8169    4.5334   -2.0335 H   0  0
   -1.5403    4.1936   -0.4233 H   0  0
   -2.0667    3.2849   -1.8544 H   0  0
   -3.8817   -0.2512   -1.8932 H   0  0
   -4.1244   -1.4424   -0.5691 H   0  0
   -3.1981   -1.8852   -2.0171 H   0  0
    1.8094    3.1026   -6.0813 H   0  0
    2.7399    1.8799   -7.0143 H   0  0
    3.2904    2.3927   -5.4066 H   0  0
    0.7455   -2.7423    4.0034 H   0  0
   -1.0200   -3.0794    3.9806 H   0  0
   -0.3897   -1.5473    3.3430 H   0  0
    1.3108   -3.5747   -0.1460 H   0  0
   -0.3628   -3.0945   -0.5293 H   0  0
    7.4324   -4.0360   -6.2042 H   0  0
  1  3  2  0
  1  5  1  0
  2  4  1  0
  2  5  2  0
  3  6  1  0
  4  6  2  0
  5 23  1  0
  6 30  1  0
  7 17  1  0
  7 23  1  0
  7 24  2  0
  8 18  1  0
  8 25  2  0
  8 31  1  0
  9 19  1  0
  9 26  2  0
  9 32  1  0
 10 20  1  0
 10 27  2  0
 10 33  1  0
 11 21  1  0
 11 28  2  0
 11 34  1  0
 12 13  1  0
 12 14  1  0
 12 31  1  0
 13 15  1  0
 13 32  1  0
 14 16  1  0
 14 33  1  0
 15 22  1  0
 15 29  1  0
 16 29  1  0
 16 30  1  0
 22 34  1  0
  1 35  1  0
  2 36  1  0
  3 37  1  0
  4 38  1  0
 12 39  1  0
 13 40  1  0
 14 41  1  0
 15 42  1  0
 16 43  1  0
 17 44  1  0
 17 45  1  0
 17 46  1  0
 18 47  1  0
 18 48  1  0
 18 49  1  0
 19 50  1  0
 19 51  1  0
 19 52  1  0
 20 53  1  0
 20 54  1  0
 20 55  1  0
 21 56  1  0
 21 57  1  0
 21 58  1  0
 22 59  1  0
 22 60  1  0
 23 61  1  0
M  END
> <Name>
BR010130

$$$$
BR010131
  SciTegic05062102053D

 62 63  0  0  1  0            999 V2000
    4.7751   -4.1642   -4.1588 C   0  0
    3.5869   -3.4700   -3.9314 C   0  0
    5.3256   -2.6361   -5.9474 C   0  0
    5.6446   -3.7472   -5.1668 C   0  0
    4.1373   -1.9419   -5.7201 C   0  0
    3.2680   -2.3589   -4.7121 C   0  0
    6.8835   -4.4715   -5.4030 C   0  0
   -0.1514    2.7277   -1.1123 C   0  0
   -2.1676   -0.5982   -0.6712 C   0  0
    1.0128    1.9772   -4.7638 C   0  0
   -0.0513   -3.2307    2.0855 C   0  0
    0.7233    0.6893   -1.9268 C   0  0  1  0  0  0
    0.1626   -0.3970   -1.0083 C   0  0  2  0  0  0
    1.0679    0.1207   -3.3030 C   0  0  2  0  0  0
    1.1199   -1.5934   -0.9760 C   0  0  1  0  0  0
    1.9375   -1.1315   -3.1696 C   0  0  1  0  0  0
   -1.2083    3.7587   -1.3695 C   0  0
   -3.4304   -1.0693   -1.3265 C   0  0
    1.8918    2.9615   -5.4741 C   0  0
   -0.1861   -2.6172    3.4462 C   0  0
    8.5810   -5.7816   -4.3571 C   0  0
    0.5950   -2.7518   -0.1363 C   0  0
    3.8273   -0.8183   -6.5170 N   0  0
    7.4412   -4.5643   -6.5045 O   0  0
    0.6512    2.7844   -0.1904 O   0  0
   -2.1187   -0.1064    0.4481 O   0  0
   -0.2082    1.9681   -4.8419 O   0  0
   -0.3267   -4.3949    1.8285 O   0  0
    1.3267   -2.0883   -2.3049 O   0  0
    2.0984   -1.6910   -4.4725 O   0  0
    7.3609   -5.0398   -4.2536 O   0  0
   -0.2303    1.7405   -2.0532 O   0  0
   -1.1121   -0.8043   -1.5106 O   0  0
    1.7818    1.1166   -4.0347 O   0  0
    0.4192   -2.3021    1.1952 O   0  0
    5.0137   -5.0283   -3.5438 H   0  0
    2.9138   -3.8001   -3.1447 H   0  0
    6.0044   -2.3111   -6.7333 H   0  0
    1.6205    1.1273   -1.4713 H   0  0
   -0.0004    0.0130   -0.0050 H   0  0
    0.1516   -0.0940   -3.8664 H   0  0
    2.0891   -1.2829   -0.5645 H   0  0
    2.9371   -0.8744   -2.7968 H   0  0
   -0.8169    4.5334   -2.0335 H   0  0
   -1.5403    4.1936   -0.4233 H   0  0
   -2.0667    3.2849   -1.8544 H   0  0
   -3.8817   -0.2512   -1.8932 H   0  0
   -4.1244   -1.4424   -0.5691 H   0  0
   -3.1981   -1.8852   -2.0171 H   0  0
    2.0530    3.8384   -4.8422 H   0  0
    1.4342    3.2496   -6.4239 H   0  0
    2.8609    2.4984   -5.6816 H   0  0
    0.7455   -2.7423    4.0034 H   0  0
   -1.0200   -3.0794    3.9806 H   0  0
   -0.3897   -1.5473    3.3430 H   0  0
    8.8505   -6.1800   -3.3759 H   0  0
    9.3752   -5.1286   -4.7277 H   0  0
    8.4360   -6.6085   -5.0563 H   0  0
    1.3108   -3.5747   -0.1460 H   0  0
   -0.3628   -3.0945   -0.5293 H   0  0
    4.4875   -0.5100   -7.2007 H   0  0
    2.9984   -0.2963   -6.3197 H   0  0
  1  2  1  0
  1  4  2  0
  2  6  2  0
  3  4  1  0
  3  5  2  0
  4  7  1  0
  5  6  1  0
  5 23  1  0
  6 30  1  0
  7 24  2  0
  7 31  1  0
  8 17  1  0
  8 25  2  0
  8 32  1  0
  9 18  1  0
  9 26  2  0
  9 33  1  0
 10 19  1  0
 10 27  2  0
 10 34  1  0
 11 20  1  0
 11 28  2  0
 11 35  1  0
 12 13  1  0
 12 14  1  0
 12 32  1  0
 13 15  1  0
 13 33  1  0
 14 16  1  0
 14 34  1  0
 15 22  1  0
 15 29  1  0
 16 29  1  0
 16 30  1  0
 21 31  1  0
 22 35  1  0
  1 36  1  0
  2 37  1  0
  3 38  1  0
 12 39  1  0
 13 40  1  0
 14 41  1  0
 15 42  1  0
 16 43  1  0
 17 44  1  0
 17 45  1  0
 17 46  1  0
 18 47  1  0
 18 48  1  0
 18 49  1  0
 19 50  1  0
 19 51  1  0
 19 52  1  0
 20 53  1  0
 20 54  1  0
 20 55  1  0
 21 56  1  0
 21 57  1  0
 21 58  1  0
 22 59  1  0
 22 60  1  0
 23 61  1  0
 23 62  1  0
M  END
> <Name>
BR010131

$$$$
BR010132
  SciTegic05062102053D

 56 57  0  0  1  0            999 V2000
    4.7979   -4.1534   -4.1870 C   0  0
    5.3157   -2.6074   -5.9699 C   0  0
    3.6054   -3.4724   -3.9427 C   0  0
    4.1231   -1.9263   -5.7257 C   0  0
    5.6531   -3.7208   -5.2005 C   0  0
    3.2680   -2.3589   -4.7121 C   0  0
   -0.1514    2.7277   -1.1123 C   0  0
   -2.1676   -0.5982   -0.6712 C   0  0
    1.6033    1.0954   -5.3880 C   0  0
   -0.0513   -3.2307    2.0855 C   0  0
    0.7233    0.6893   -1.9268 C   0  0  1  0  0  0
    0.1626   -0.3970   -1.0083 C   0  0  2  0  0  0
    1.0679    0.1207   -3.3030 C   0  0  2  0  0  0
    1.1199   -1.5934   -0.9760 C   0  0  1  0  0  0
    1.9375   -1.1315   -3.1696 C   0  0  1  0  0  0
   -1.2083    3.7587   -1.3695 C   0  0
   -3.4304   -1.0693   -1.3265 C   0  0
    2.4078    2.1903   -6.0204 C   0  0
   -0.1861   -2.6172    3.4462 C   0  0
    0.5950   -2.7518   -0.1363 C   0  0
    6.8589   -4.4094   -5.4474 N   0  0
    0.6512    2.7844   -0.1904 O   0  0
   -2.1187   -0.1064    0.4481 O   0  0
    0.8996    0.3135   -6.0130 O   0  0
   -0.3267   -4.3949    1.8285 O   0  0
    1.3267   -2.0883   -2.3049 O   0  0
    2.0984   -1.6910   -4.4725 O   0  0
   -0.2303    1.7405   -2.0532 O   0  0
   -1.1121   -0.8043   -1.5106 O   0  0
    1.7818    1.1166   -4.0347 O   0  0
    0.4192   -2.3021    1.1952 O   0  0
    5.0511   -5.0199   -3.5814 H   0  0
    5.9747   -2.2618   -6.7622 H   0  0
    2.9433   -3.8140   -3.1517 H   0  0
    3.8656   -1.0596   -6.3283 H   0  0
    1.6205    1.1273   -1.4713 H   0  0
   -0.0004    0.0130   -0.0050 H   0  0
    0.1516   -0.0940   -3.8664 H   0  0
    2.0891   -1.2829   -0.5645 H   0  0
    2.9371   -0.8744   -2.7968 H   0  0
   -0.8169    4.5334   -2.0335 H   0  0
   -1.5403    4.1936   -0.4233 H   0  0
   -2.0667    3.2849   -1.8544 H   0  0
   -3.8817   -0.2512   -1.8932 H   0  0
   -4.1244   -1.4424   -0.5691 H   0  0
   -3.1981   -1.8852   -2.0171 H   0  0
    1.8094    3.1026   -6.0813 H   0  0
    2.7399    1.8799   -7.0143 H   0  0
    3.2904    2.3927   -5.4066 H   0  0
    0.7455   -2.7423    4.0034 H   0  0
   -1.0200   -3.0794    3.9806 H   0  0
   -0.3897   -1.5473    3.3430 H   0  0
    1.3108   -3.5747   -0.1460 H   0  0
   -0.3628   -3.0945   -0.5293 H   0  0
    7.1118   -5.1771   -4.8586 H   0  0
    7.4852   -4.0614   -6.1451 H   0  0
  1  3  2  0
  1  5  1  0
  2  4  1  0
  2  5  2  0
  3  6  1  0
  4  6  2  0
  5 21  1  0
  6 27  1  0
  7 16  1  0
  7 22  2  0
  7 28  1  0
  8 17  1  0
  8 23  2  0
  8 29  1  0
  9 18  1  0
  9 24  2  0
  9 30  1  0
 10 19  1  0
 10 25  2  0
 10 31  1  0
 11 12  1  0
 11 13  1  0
 11 28  1  0
 12 14  1  0
 12 29  1  0
 13 15  1  0
 13 30  1  0
 14 20  1  0
 14 26  1  0
 15 26  1  0
 15 27  1  0
 20 31  1  0
  1 32  1  0
  2 33  1  0
  3 34  1  0
  4 35  1  0
 11 36  1  0
 12 37  1  0
 13 38  1  0
 14 39  1  0
 15 40  1  0
 16 41  1  0
 16 42  1  0
 16 43  1  0
 17 44  1  0
 17 45  1  0
 17 46  1  0
 18 47  1  0
 18 48  1  0
 18 49  1  0
 19 50  1  0
 19 51  1  0
 19 52  1  0
 20 53  1  0
 20 54  1  0
 21 55  1  0
 21 56  1  0
M  END
> <Name>
BR010132

$$$$
BR010133
  SciTegic05062102053D

 62 63  0  0  1  0            999 V2000
    3.0860   -5.1545   -5.1515 C   0  0
    4.9769   -3.9490   -4.2525 C   0  0
    2.3068   -4.0014   -5.0590 C   0  0
    4.1976   -2.7957   -4.1600 C   0  0
    4.4211   -5.1284   -4.7482 C   0  0
    2.8626   -2.8220   -4.5633 C   0  0
   -0.1514    2.7277   -1.1123 C   0  0
   -2.1676   -0.5982   -0.6712 C   0  0
    1.0128    1.9772   -4.7638 C   0  0
    1.2169   -4.9314    0.5319 C   0  0
    0.7233    0.6893   -1.9268 C   0  0  1  0  0  0
    0.1626   -0.3970   -1.0083 C   0  0  2  0  0  0
    1.0679    0.1207   -3.3030 C   0  0  2  0  0  0
    1.1199   -1.5934   -0.9760 C   0  0  1  0  0  0
    1.9375   -1.1315   -3.1696 C   0  0  1  0  0  0
   -1.2083    3.7587   -1.3695 C   0  0
   -3.4304   -1.0693   -1.3265 C   0  0
    1.8918    2.9615   -5.4741 C   0  0
    2.3025   -5.9557    0.3958 C   0  0
    4.1696   -7.9790   -3.0202 C   0  0
    0.5950   -2.7518   -0.1363 C   0  0
    5.2188   -6.3086   -4.8428 N   0  0
    0.6512    2.7844   -0.1904 O   0  0
   -2.1187   -0.1064    0.4481 O   0  0
   -0.2082    1.9681   -4.8419 O   0  0
    0.1969   -5.0970    1.1871 O   0  0
    6.6779   -8.1015   -3.6990 O   0  0
    5.8978   -6.1430   -2.3202 O   0  0
    1.3267   -2.0883   -2.3049 O   0  0
    2.0984   -1.6910   -4.4725 O   0  0
   -0.2303    1.7405   -2.0532 O   0  0
   -1.1121   -0.8043   -1.5106 O   0  0
    1.7818    1.1166   -4.0347 O   0  0
    1.5405   -3.8057   -0.1784 O   0  0
    5.6741   -7.1022   -3.3836 S   0  0
    2.6435   -6.0684   -5.5393 H   0  0
    6.0161   -3.9178   -3.9354 H   0  0
    1.2674   -4.0280   -5.3748 H   0  0
    4.6362   -1.8801   -3.7728 H   0  0
    1.6205    1.1273   -1.4713 H   0  0
   -0.0004    0.0130   -0.0050 H   0  0
    0.1516   -0.0940   -3.8664 H   0  0
    2.0891   -1.2829   -0.5645 H   0  0
    2.9371   -0.8744   -2.7968 H   0  0
   -0.8169    4.5334   -2.0335 H   0  0
   -1.5403    4.1936   -0.4233 H   0  0
   -2.0667    3.2849   -1.8544 H   0  0
   -3.8817   -0.2512   -1.8932 H   0  0
   -4.1244   -1.4424   -0.5691 H   0  0
   -3.1981   -1.8852   -2.0171 H   0  0
    2.0530    3.8384   -4.8422 H   0  0
    1.4342    3.2496   -6.4239 H   0  0
    2.8609    2.4984   -5.6816 H   0  0
    2.1018   -6.5965   -0.4664 H   0  0
    2.3687   -6.5498    1.3107 H   0  0
    3.2601   -5.4505    0.2393 H   0  0
    4.3135   -8.5419   -2.0966 H   0  0
    3.3661   -7.2503   -2.9027 H   0  0
    3.9555   -8.6541   -3.8501 H   0  0
   -0.3548   -3.1050   -0.5393 H   0  0
    0.4587   -2.4326    0.8975 H   0  0
    4.9466   -6.9443   -5.6108 H   0  0
  1  3  2  0
  1  5  1  0
  2  4  1  0
  2  5  2  0
  3  6  1  0
  4  6  2  0
  5 22  1  0
  6 30  1  0
  7 16  1  0
  7 23  2  0
  7 31  1  0
  8 17  1  0
  8 24  2  0
  8 32  1  0
  9 18  1  0
  9 25  2  0
  9 33  1  0
 10 19  1  0
 10 26  2  0
 10 34  1  0
 11 12  1  0
 11 13  1  0
 11 31  1  0
 12 14  1  0
 12 32  1  0
 13 15  1  0
 13 33  1  0
 14 21  1  0
 14 29  1  0
 15 29  1  0
 15 30  1  0
 20 35  1  0
 21 34  1  0
 22 35  1  0
 27 35  2  0
 28 35  2  0
  1 36  1  0
  2 37  1  0
  3 38  1  0
  4 39  1  0
 11 40  1  0
 12 41  1  0
 13 42  1  0
 14 43  1  0
 15 44  1  0
 16 45  1  0
 16 46  1  0
 16 47  1  0
 17 48  1  0
 17 49  1  0
 17 50  1  0
 18 51  1  0
 18 52  1  0
 18 53  1  0
 19 54  1  0
 19 55  1  0
 19 56  1  0
 20 57  1  0
 20 58  1  0
 20 59  1  0
 21 60  1  0
 21 61  1  0
 22 62  1  0
M  END
> <Name>
BR010133

$$$$
BR010134
  SciTegic05062102053D

 67 68  0  0  1  0            999 V2000
    4.7728   -4.1663   -4.1595 C   0  0
    3.5861   -3.4699   -3.9310 C   0  0
    5.3234   -2.6407   -5.9502 C   0  0
    5.6415   -3.7517   -5.1691 C   0  0
    4.1366   -1.9443   -5.7217 C   0  0
    3.2680   -2.3589   -4.7121 C   0  0
    6.8789   -4.4782   -5.4062 C   0  0
    4.5834   -0.2856   -7.5584 C   0  0
   -0.1514    2.7277   -1.1123 C   0  0
   -2.1676   -0.5982   -0.6712 C   0  0
    1.0128    1.9772   -4.7638 C   0  0
   -0.0513   -3.2307    2.0855 C   0  0
    0.7233    0.6893   -1.9268 C   0  0  1  0  0  0
    0.1626   -0.3970   -1.0083 C   0  0  2  0  0  0
    1.0679    0.1207   -3.3030 C   0  0  2  0  0  0
    1.1199   -1.5934   -0.9760 C   0  0  1  0  0  0
    1.9375   -1.1315   -3.1696 C   0  0  1  0  0  0
    3.9048    0.9184   -8.1620 C   0  0
   -1.2083    3.7587   -1.3695 C   0  0
   -3.4304   -1.0693   -1.3265 C   0  0
    1.8918    2.9615   -5.4741 C   0  0
   -0.1861   -2.6172    3.4462 C   0  0
    8.4639   -5.0932   -7.0800 C   0  0
    0.5950   -2.7518   -0.1363 C   0  0
    3.8315   -0.8336   -6.5120 N   0  0
    7.5143   -5.0830   -4.5324 O   0  0
    5.6624   -0.6799   -7.9887 O   0  0
    0.6512    2.7844   -0.1904 O   0  0
   -2.1187   -0.1064    0.4481 O   0  0
   -0.2082    1.9681   -4.8419 O   0  0
   -0.3267   -4.3949    1.8285 O   0  0
    1.3267   -2.0883   -2.3049 O   0  0
    2.0984   -1.6910   -4.4725 O   0  0
    7.2569   -4.4129   -6.7196 O   0  0
   -0.2303    1.7405   -2.0532 O   0  0
   -1.1121   -0.8043   -1.5106 O   0  0
    1.7818    1.1166   -4.0347 O   0  0
    0.4192   -2.3021    1.1952 O   0  0
    5.0111   -5.0309   -3.5452 H   0  0
    2.9147   -3.7980   -3.1419 H   0  0
    6.0018   -2.3183   -6.7374 H   0  0
    1.6205    1.1273   -1.4713 H   0  0
   -0.0004    0.0130   -0.0050 H   0  0
    0.1516   -0.0940   -3.8664 H   0  0
    2.0891   -1.2829   -0.5645 H   0  0
    2.9371   -0.8744   -2.7968 H   0  0
    4.2255    1.8244   -7.6402 H   0  0
    2.8198    0.8189   -8.0653 H   0  0
    4.1590    0.9972   -9.2231 H   0  0
   -0.8169    4.5334   -2.0335 H   0  0
   -1.5403    4.1936   -0.4233 H   0  0
   -2.0667    3.2849   -1.8544 H   0  0
   -3.8817   -0.2512   -1.8932 H   0  0
   -4.1244   -1.4424   -0.5691 H   0  0
   -3.1981   -1.8852   -2.0171 H   0  0
    2.0530    3.8384   -4.8422 H   0  0
    1.4342    3.2496   -6.4239 H   0  0
    2.8609    2.4984   -5.6816 H   0  0
    0.7455   -2.7423    4.0034 H   0  0
   -1.0200   -3.0794    3.9806 H   0  0
   -0.3897   -1.5473    3.3430 H   0  0
    8.6508   -4.9636   -8.1489 H   0  0
    8.3694   -6.1556   -6.8420 H   0  0
    9.2949   -4.6672   -6.5129 H   0  0
    1.3108   -3.5747   -0.1460 H   0  0
   -0.3628   -3.0945   -0.5293 H   0  0
    2.9470   -0.3574   -6.3039 H   0  0
  1  2  1  0
  1  4  2  0
  2  6  2  0
  3  4  1  0
  3  5  2  0
  4  7  1  0
  5  6  1  0
  5 25  1  0
  6 33  1  0
  7 26  2  0
  7 34  1  0
  8 18  1  0
  8 25  1  0
  8 27  2  0
  9 19  1  0
  9 28  2  0
  9 35  1  0
 10 20  1  0
 10 29  2  0
 10 36  1  0
 11 21  1  0
 11 30  2  0
 11 37  1  0
 12 22  1  0
 12 31  2  0
 12 38  1  0
 13 14  1  0
 13 15  1  0
 13 35  1  0
 14 16  1  0
 14 36  1  0
 15 17  1  0
 15 37  1  0
 16 24  1  0
 16 32  1  0
 17 32  1  0
 17 33  1  0
 23 34  1  0
 24 38  1  0
  1 39  1  0
  2 40  1  0
  3 41  1  0
 13 42  1  0
 14 43  1  0
 15 44  1  0
 16 45  1  0
 17 46  1  0
 18 47  1  0
 18 48  1  0
 18 49  1  0
 19 50  1  0
 19 51  1  0
 19 52  1  0
 20 53  1  0
 20 54  1  0
 20 55  1  0
 21 56  1  0
 21 57  1  0
 21 58  1  0
 22 59  1  0
 22 60  1  0
 22 61  1  0
 23 62  1  0
 23 63  1  0
 23 64  1  0
 24 65  1  0
 24 66  1  0
 25 67  1  0
M  END
> <Name>
BR010134

$$$$
BR010135
  SciTegic05062102053D

 68 69  0  0  1  0            999 V2000
    4.7744   -4.1654   -4.1607 C   0  0
    3.5872   -3.4700   -3.9316 C   0  0
    5.3233   -2.6384   -5.9508 C   0  0
    5.6425   -3.7496   -5.1703 C   0  0
    4.1360   -1.9431   -5.7217 C   0  0
    3.2680   -2.3589   -4.7121 C   0  0
    6.8804   -4.4749   -5.4085 C   0  0
   -0.1514    2.7277   -1.1123 C   0  0
   -2.1676   -0.5982   -0.6712 C   0  0
    1.0128    1.9772   -4.7638 C   0  0
   -0.0513   -3.2307    2.0855 C   0  0
    0.7233    0.6893   -1.9268 C   0  0  1  0  0  0
    0.1626   -0.3970   -1.0083 C   0  0  2  0  0  0
    1.0679    0.1207   -3.3030 C   0  0  2  0  0  0
    1.1199   -1.5934   -0.9760 C   0  0  1  0  0  0
    1.9375   -1.1315   -3.1696 C   0  0  1  0  0  0
   -1.2083    3.7587   -1.3695 C   0  0
   -3.4304   -1.0693   -1.3265 C   0  0
    1.8918    2.9615   -5.4741 C   0  0
   -0.1861   -2.6172    3.4462 C   0  0
    8.4651   -5.0874   -7.0835 C   0  0
    1.7020   -1.5834   -7.9831 C   0  0
    0.5950   -2.7518   -0.1363 C   0  0
    3.8219   -0.8062   -6.5298 N   0  0
    7.5166   -5.0798   -4.5354 O   0  0
    0.6512    2.7844   -0.1904 O   0  0
   -2.1187   -0.1064    0.4481 O   0  0
   -0.2082    1.9681   -4.8419 O   0  0
   -0.3267   -4.3949    1.8285 O   0  0
    3.3739    0.2081   -8.8563 O   0  0
    4.1357   -2.1895   -8.7296 O   0  0
    1.3267   -2.0883   -2.3049 O   0  0
    2.0984   -1.6910   -4.4725 O   0  0
    7.2578   -4.4083   -6.7220 O   0  0
   -0.2303    1.7405   -2.0532 O   0  0
   -1.1121   -0.8043   -1.5106 O   0  0
    1.7818    1.1166   -4.0347 O   0  0
    0.4192   -2.3021    1.1952 O   0  0
    3.3952   -1.0733   -8.1758 S   0  0
    5.0128   -5.0300   -3.5466 H   0  0
    2.9154   -3.7987   -3.1433 H   0  0
    6.0002   -2.3140   -6.7382 H   0  0
    1.6205    1.1273   -1.4713 H   0  0
   -0.0004    0.0130   -0.0050 H   0  0
    0.1516   -0.0940   -3.8664 H   0  0
    2.0891   -1.2829   -0.5645 H   0  0
    2.9371   -0.8744   -2.7968 H   0  0
   -0.8169    4.5334   -2.0335 H   0  0
   -1.5403    4.1936   -0.4233 H   0  0
   -2.0667    3.2849   -1.8544 H   0  0
   -3.8817   -0.2512   -1.8932 H   0  0
   -4.1244   -1.4424   -0.5691 H   0  0
   -3.1981   -1.8852   -2.0171 H   0  0
    2.0530    3.8384   -4.8422 H   0  0
    1.4342    3.2496   -6.4239 H   0  0
    2.8609    2.4984   -5.6816 H   0  0
    0.7455   -2.7423    4.0034 H   0  0
   -1.0200   -3.0794    3.9806 H   0  0
   -0.3897   -1.5473    3.3430 H   0  0
    8.6515   -4.9568   -8.1523 H   0  0
    8.3716   -6.1501   -6.8462 H   0  0
    9.2961   -4.6612   -6.5164 H   0  0
    1.2905   -1.7921   -8.9720 H   0  0
    1.6812   -2.4809   -7.3631 H   0  0
    1.1510   -0.7736   -7.5027 H   0  0
    1.3108   -3.5747   -0.1460 H   0  0
   -0.3628   -3.0945   -0.5293 H   0  0
    3.2559   -0.0892   -6.0482 H   0  0
  1  2  1  0
  1  4  2  0
  2  6  2  0
  3  4  1  0
  3  5  2  0
  4  7  1  0
  5  6  1  0
  5 24  1  0
  6 33  1  0
  7 25  2  0
  7 34  1  0
  8 17  1  0
  8 26  2  0
  8 35  1  0
  9 18  1  0
  9 27  2  0
  9 36  1  0
 10 19  1  0
 10 28  2  0
 10 37  1  0
 11 20  1  0
 11 29  2  0
 11 38  1  0
 12 13  1  0
 12 14  1  0
 12 35  1  0
 13 15  1  0
 13 36  1  0
 14 16  1  0
 14 37  1  0
 15 23  1  0
 15 32  1  0
 16 32  1  0
 16 33  1  0
 21 34  1  0
 22 39  1  0
 23 38  1  0
 24 39  1  0
 30 39  2  0
 31 39  2  0
  1 40  1  0
  2 41  1  0
  3 42  1  0
 12 43  1  0
 13 44  1  0
 14 45  1  0
 15 46  1  0
 16 47  1  0
 17 48  1  0
 17 49  1  0
 17 50  1  0
 18 51  1  0
 18 52  1  0
 18 53  1  0
 19 54  1  0
 19 55  1  0
 19 56  1  0
 20 57  1  0
 20 58  1  0
 20 59  1  0
 21 60  1  0
 21 61  1  0
 21 62  1  0
 22 63  1  0
 22 64  1  0
 22 65  1  0
 23 66  1  0
 23 67  1  0
 24 68  1  0
M  END
> <Name>
BR010135

$$$$
BR010136
  SciTegic05062102053D

 36 37  0  0  1  0            999 V2000
    4.9766   -3.9495   -4.2530 C   0  0
    3.0855   -5.1545   -5.1521 C   0  0
    4.1977   -2.7961   -4.1601 C   0  0
    2.3065   -4.0012   -5.0593 C   0  0
    4.4206   -5.1286   -4.7490 C   0  0
    2.8626   -2.8220   -4.5633 C   0  0
    5.2325   -6.3313   -4.8457 C   0  0
    0.7233    0.6893   -1.9268 C   0  0  1  0  0  0
    0.1626   -0.3970   -1.0083 C   0  0  2  0  0  0
    1.0679    0.1207   -3.3030 C   0  0  2  0  0  0
    1.1199   -1.5934   -0.9760 C   0  0  1  0  0  0
    1.9375   -1.1315   -3.1696 C   0  0  1  0  0  0
    0.5950   -2.7518   -0.1363 C   0  0
    4.7993   -7.4042   -5.2750 O   0  0
    1.3267   -2.0883   -2.3049 O   0  0
   -0.2303    1.7405   -2.0532 O   0  0
   -1.1121   -0.8043   -1.5106 O   0  0
    1.7818    1.1166   -4.0347 O   0  0
    1.6836   -3.5897    0.2091 O   0  0
    2.0984   -1.6910   -4.4725 O   0  0
    6.0158   -3.9175   -3.9355 H   0  0
    2.6427   -6.0684   -5.5398 H   0  0
    4.6366   -1.8807   -3.7730 H   0  0
    1.2671   -4.0273   -5.3751 H   0  0
    6.2909   -6.2621   -4.5122 H   0  0
    1.6205    1.1273   -1.4713 H   0  0
   -0.0004    0.0130   -0.0050 H   0  0
    0.1516   -0.0940   -3.8664 H   0  0
    2.0891   -1.2829   -0.5645 H   0  0
    2.9371   -0.8744   -2.7968 H   0  0
   -0.1340   -3.3273   -0.7079 H   0  0
    0.1302   -2.3729    0.7745 H   0  0
   -0.3811    2.0859   -1.1596 H   0  0
   -1.4359   -1.4895   -0.9074 H   0  0
    2.5803    1.3137   -3.5221 H   0  0
    1.3240   -4.3187    0.7426 H   0  0
  1  3  2  0
  1  5  1  0
  2  4  1  0
  2  5  2  0
  3  6  1  0
  4  6  2  0
  5  7  1  0
  6 20  1  0
  7 14  2  0
  8  9  1  0
  8 10  1  0
  8 16  1  0
  9 11  1  0
  9 17  1  0
 10 12  1  0
 10 18  1  0
 11 13  1  0
 11 15  1  0
 12 15  1  0
 12 20  1  0
 13 19  1  0
  1 21  1  0
  2 22  1  0
  3 23  1  0
  4 24  1  0
  7 25  1  0
  8 26  1  0
  9 27  1  0
 10 28  1  0
 11 29  1  0
 12 30  1  0
 13 31  1  0
 13 32  1  0
 16 33  1  0
 17 34  1  0
 18 35  1  0
 19 36  1  0
M  END
> <Name>
BR010136

$$$$
BR010137
  SciTegic05062102053D

 40 41  0  0  1  0            999 V2000
    4.9766   -3.9495   -4.2530 C   0  0
    3.0855   -5.1545   -5.1521 C   0  0
    4.1977   -2.7961   -4.1601 C   0  0
    2.3065   -4.0012   -5.0593 C   0  0
    4.4206   -5.1286   -4.7490 C   0  0
    2.8626   -2.8220   -4.5633 C   0  0
    5.2325   -6.3313   -4.8457 C   0  0
    0.7233    0.6893   -1.9268 C   0  0  1  0  0  0
    0.1626   -0.3970   -1.0083 C   0  0  2  0  0  0
    1.0679    0.1207   -3.3030 C   0  0  2  0  0  0
    1.1199   -1.5934   -0.9760 C   0  0  1  0  0  0
    1.9375   -1.1315   -3.1696 C   0  0  1  0  0  0
    5.2093   -8.6272   -5.4942 C   0  0
    0.5950   -2.7518   -0.1363 C   0  0
    6.4229   -6.4012   -4.5121 O   0  0
    1.3267   -2.0883   -2.3049 O   0  0
   -0.2303    1.7405   -2.0532 O   0  0
   -1.1121   -0.8043   -1.5106 O   0  0
    1.7818    1.1166   -4.0347 O   0  0
    1.6836   -3.5897    0.2091 O   0  0
    2.0984   -1.6910   -4.4725 O   0  0
    4.5171   -7.3821   -5.3516 O   0  0
    6.0158   -3.9175   -3.9355 H   0  0
    2.6427   -6.0684   -5.5398 H   0  0
    4.6366   -1.8807   -3.7730 H   0  0
    1.2671   -4.0273   -5.3751 H   0  0
    1.6205    1.1273   -1.4713 H   0  0
   -0.0004    0.0130   -0.0050 H   0  0
    0.1516   -0.0940   -3.8664 H   0  0
    2.0891   -1.2829   -0.5645 H   0  0
    2.9371   -0.8744   -2.7968 H   0  0
    4.5298   -9.3776   -5.9056 H   0  0
    5.5811   -8.9521   -4.5192 H   0  0
    6.0520   -8.4893   -6.1759 H   0  0
   -0.1340   -3.3273   -0.7079 H   0  0
    0.1302   -2.3729    0.7745 H   0  0
   -0.3811    2.0859   -1.1596 H   0  0
   -1.4359   -1.4895   -0.9074 H   0  0
    2.5803    1.3137   -3.5221 H   0  0
    1.3240   -4.3187    0.7426 H   0  0
  1  3  2  0
  1  5  1  0
  2  4  1  0
  2  5  2  0
  3  6  1  0
  4  6  2  0
  5  7  1  0
  6 21  1  0
  7 15  2  0
  7 22  1  0
  8  9  1  0
  8 10  1  0
  8 17  1  0
  9 11  1  0
  9 18  1  0
 10 12  1  0
 10 19  1  0
 11 14  1  0
 11 16  1  0
 12 16  1  0
 12 21  1  0
 13 22  1  0
 14 20  1  0
  1 23  1  0
  2 24  1  0
  3 25  1  0
  4 26  1  0
  8 27  1  0
  9 28  1  0
 10 29  1  0
 11 30  1  0
 12 31  1  0
 13 32  1  0
 13 33  1  0
 13 34  1  0
 14 35  1  0
 14 36  1  0
 17 37  1  0
 18 38  1  0
 19 39  1  0
 20 40  1  0
M  END
> <Name>
BR010137

$$$$
BR010138
  SciTegic05062102053D

 40 41  0  0  1  0            999 V2000
    4.9862   -3.9289   -4.2442 C   0  0
    4.1963   -2.7826   -4.1568 C   0  0
    3.1086   -5.1540   -5.1449 C   0  0
    4.4423   -5.1146   -4.7383 C   0  0
    2.8626   -2.8220   -4.5633 C   0  0
    2.3187   -4.0077   -5.0573 C   0  0
    5.2666   -6.3092   -4.8315 C   0  0
    0.7233    0.6893   -1.9268 C   0  0  1  0  0  0
    0.1626   -0.3970   -1.0083 C   0  0  2  0  0  0
    1.0679    0.1207   -3.3030 C   0  0  2  0  0  0
    1.1199   -1.5934   -0.9760 C   0  0  1  0  0  0
    1.9375   -1.1315   -3.1696 C   0  0  1  0  0  0
    0.7506   -3.7536   -6.8272 C   0  0
    0.5950   -2.7518   -0.1363 C   0  0
    6.4523   -6.3380   -4.4904 O   0  0
    1.3267   -2.0883   -2.3049 O   0  0
   -0.2303    1.7405   -2.0532 O   0  0
   -1.1121   -0.8043   -1.5106 O   0  0
    1.7818    1.1166   -4.0347 O   0  0
    1.6836   -3.5897    0.2091 O   0  0
    2.0984   -1.6910   -4.4725 O   0  0
    1.0182   -4.0583   -5.4598 O   0  0
    6.0242   -3.8867   -3.9247 H   0  0
    4.6257   -1.8622   -3.7707 H   0  0
    2.6821   -6.0763   -5.5328 H   0  0
    4.7891   -7.2302   -5.2315 H   0  0
    1.6205    1.1273   -1.4713 H   0  0
   -0.0004    0.0130   -0.0050 H   0  0
    0.1516   -0.0940   -3.8664 H   0  0
    2.0891   -1.2829   -0.5645 H   0  0
    2.9371   -0.8744   -2.7968 H   0  0
   -0.3231   -3.8308   -7.0151 H   0  0
    1.2949   -4.4500   -7.4699 H   0  0
    1.0822   -2.7336   -7.0355 H   0  0
   -0.1340   -3.3273   -0.7079 H   0  0
    0.1302   -2.3729    0.7745 H   0  0
   -0.3811    2.0859   -1.1596 H   0  0
   -1.4359   -1.4895   -0.9074 H   0  0
    2.5803    1.3137   -3.5221 H   0  0
    1.3240   -4.3187    0.7426 H   0  0
  1  2  1  0
  1  4  2  0
  2  5  2  0
  3  4  1  0
  3  6  2  0
  4  7  1  0
  5  6  1  0
  5 21  1  0
  6 22  1  0
  7 15  2  0
  8  9  1  0
  8 10  1  0
  8 17  1  0
  9 11  1  0
  9 18  1  0
 10 12  1  0
 10 19  1  0
 11 14  1  0
 11 16  1  0
 12 16  1  0
 12 21  1  0
 13 22  1  0
 14 20  1  0
  1 23  1  0
  2 24  1  0
  3 25  1  0
  7 26  1  0
  8 27  1  0
  9 28  1  0
 10 29  1  0
 11 30  1  0
 12 31  1  0
 13 32  1  0
 13 33  1  0
 13 34  1  0
 14 35  1  0
 14 36  1  0
 17 37  1  0
 18 38  1  0
 19 39  1  0
 20 40  1  0
M  END
> <Name>
BR010138

$$$$
BR010139
  SciTegic05062102053D

 36 37  0  0  1  0            999 V2000
    4.9768   -3.9490   -4.2525 C   0  0
    3.0860   -5.1546   -5.1514 C   0  0
    4.1976   -2.7958   -4.1600 C   0  0
    2.3067   -4.0014   -5.0590 C   0  0
    4.4210   -5.1284   -4.7482 C   0  0
    2.8626   -2.8220   -4.5633 C   0  0
    0.7233    0.6893   -1.9268 C   0  0  1  0  0  0
    0.1626   -0.3970   -1.0083 C   0  0  2  0  0  0
    1.0679    0.1207   -3.3030 C   0  0  2  0  0  0
    1.1199   -1.5934   -0.9760 C   0  0  1  0  0  0
    1.9375   -1.1315   -3.1696 C   0  0  1  0  0  0
    0.5950   -2.7518   -0.1363 C   0  0
    5.2140   -6.3025   -4.8426 N   0  3
    6.4129   -6.2577   -4.4747 O   0  5
    4.6942   -7.3528   -5.2910 O   0  0
    1.3267   -2.0883   -2.3049 O   0  0
   -0.2303    1.7405   -2.0532 O   0  0
   -1.1121   -0.8043   -1.5106 O   0  0
    1.7818    1.1166   -4.0347 O   0  0
    1.6836   -3.5897    0.2091 O   0  0
    2.0984   -1.6910   -4.4725 O   0  0
    6.0160   -3.9150   -3.9344 H   0  0
    2.6401   -6.0669   -5.5401 H   0  0
    4.6361   -1.8801   -3.7727 H   0  0
    1.2674   -4.0280   -5.3750 H   0  0
    1.6205    1.1273   -1.4713 H   0  0
   -0.0004    0.0130   -0.0050 H   0  0
    0.1516   -0.0940   -3.8664 H   0  0
    2.0891   -1.2829   -0.5645 H   0  0
    2.9371   -0.8744   -2.7968 H   0  0
   -0.1340   -3.3273   -0.7079 H   0  0
    0.1302   -2.3729    0.7745 H   0  0
   -0.3811    2.0859   -1.1596 H   0  0
   -1.4359   -1.4895   -0.9074 H   0  0
    2.5803    1.3137   -3.5221 H   0  0
    1.3240   -4.3187    0.7426 H   0  0
  1  3  2  0
  1  5  1  0
  2  4  1  0
  2  5  2  0
  3  6  1  0
  4  6  2  0
  5 13  1  0
  6 21  1  0
  7  8  1  0
  7  9  1  0
  7 17  1  0
  8 10  1  0
  8 18  1  0
  9 11  1  0
  9 19  1  0
 10 12  1  0
 10 16  1  0
 11 16  1  0
 11 21  1  0
 12 20  1  0
 13 14  1  0
 13 15  2  0
  1 22  1  0
  2 23  1  0
  3 24  1  0
  4 25  1  0
  7 26  1  0
  8 27  1  0
  9 28  1  0
 10 29  1  0
 11 30  1  0
 12 31  1  0
 12 32  1  0
 17 33  1  0
 18 34  1  0
 19 35  1  0
 20 36  1  0
M  CHG  2  13   1  14  -1
M  END
> <Name>
BR010139

$$$$
BR010140
  SciTegic05062102053D

 42 43  0  0  1  0            999 V2000
    4.9940   -3.9108   -4.2345 C   0  0
    4.1950   -2.7704   -4.1537 C   0  0
    3.1284   -5.1544   -5.1345 C   0  0
    4.4608   -5.1028   -4.7250 C   0  0
    2.3293   -4.0140   -5.0537 C   0  0
    2.8626   -2.8220   -4.5633 C   0  0
    5.2951   -6.2911   -4.8087 C   0  0
    0.7233    0.6893   -1.9268 C   0  0  1  0  0  0
    0.1626   -0.3970   -1.0083 C   0  0  2  0  0  0
    1.0679    0.1207   -3.3030 C   0  0  2  0  0  0
    1.1199   -1.5934   -0.9760 C   0  0  1  0  0  0
    1.9375   -1.1315   -3.1696 C   0  0  1  0  0  0
    5.2706   -8.6751   -4.7199 C   0  0
    0.5950   -2.7518   -0.1363 C   0  0
    0.9731   -4.0835   -5.4764 N   0  3
    0.0931   -4.3957   -4.6398 O   0  5
    6.5195   -6.2755   -4.9924 O   0  0
    0.6980   -3.8302   -6.6730 O   0  0
    1.3267   -2.0883   -2.3049 O   0  0
   -0.2303    1.7405   -2.0532 O   0  0
   -1.1121   -0.8043   -1.5106 O   0  0
    1.7818    1.1166   -4.0347 O   0  0
    1.6836   -3.5897    0.2091 O   0  0
    2.0984   -1.6910   -4.4725 O   0  0
    4.5589   -7.4344   -4.6578 O   0  0
    6.0310   -3.8599   -3.9125 H   0  0
    4.6174   -1.8448   -3.7724 H   0  0
    2.7156   -6.0856   -5.5174 H   0  0
    1.6205    1.1273   -1.4713 H   0  0
   -0.0004    0.0130   -0.0050 H   0  0
    0.1516   -0.0940   -3.8664 H   0  0
    2.0891   -1.2829   -0.5645 H   0  0
    2.9371   -0.8744   -2.7968 H   0  0
    4.5714   -9.5042   -4.5857 H   0  0
    6.0338   -8.6979   -3.9380 H   0  0
    5.7507   -8.7610   -5.6975 H   0  0
   -0.1340   -3.3273   -0.7079 H   0  0
    0.1302   -2.3729    0.7745 H   0  0
   -0.3811    2.0859   -1.1596 H   0  0
   -1.4359   -1.4895   -0.9074 H   0  0
    2.5803    1.3137   -3.5221 H   0  0
    1.3240   -4.3187    0.7426 H   0  0
  1  2  1  0
  1  4  2  0
  2  6  2  0
  3  4  1  0
  3  5  2  0
  4  7  1  0
  5  6  1  0
  5 15  1  0
  6 24  1  0
  7 17  2  0
  7 25  1  0
  8  9  1  0
  8 10  1  0
  8 20  1  0
  9 11  1  0
  9 21  1  0
 10 12  1  0
 10 22  1  0
 11 14  1  0
 11 19  1  0
 12 19  1  0
 12 24  1  0
 13 25  1  0
 14 23  1  0
 15 16  1  0
 15 18  2  0
  1 26  1  0
  2 27  1  0
  3 28  1  0
  8 29  1  0
  9 30  1  0
 10 31  1  0
 11 32  1  0
 12 33  1  0
 13 34  1  0
 13 35  1  0
 13 36  1  0
 14 37  1  0
 14 38  1  0
 20 39  1  0
 21 40  1  0
 22 41  1  0
 23 42  1  0
M  CHG  2  15   1  16  -1
M  END
> <Name>
BR010140

$$$$
BR010141
  SciTegic05062102053D

 41 42  0  0  1  0            999 V2000
    4.9768   -3.9491   -4.2526 C   0  0
    3.0858   -5.1546   -5.1517 C   0  0
    4.1976   -2.7959   -4.1601 C   0  0
    2.3066   -4.0013   -5.0591 C   0  0
    4.4209   -5.1285   -4.7485 C   0  0
    2.8626   -2.8220   -4.5633 C   0  0
    6.5461   -6.4475   -4.4884 C   0  0
    0.7233    0.6893   -1.9268 C   0  0  1  0  0  0
    0.1626   -0.3970   -1.0083 C   0  0  2  0  0  0
    1.0679    0.1207   -3.3030 C   0  0  2  0  0  0
    1.1199   -1.5934   -0.9760 C   0  0  1  0  0  0
    1.9375   -1.1315   -3.1696 C   0  0  1  0  0  0
    7.0217   -7.8559   -4.7427 C   0  0
    0.5950   -2.7518   -0.1363 C   0  0
    5.2001   -6.2820   -4.8412 N   0  0
    7.3044   -5.6029   -4.0231 O   0  0
    1.3267   -2.0883   -2.3049 O   0  0
   -0.2303    1.7405   -2.0532 O   0  0
   -1.1121   -0.8043   -1.5106 O   0  0
    1.7818    1.1166   -4.0347 O   0  0
    1.6836   -3.5897    0.2091 O   0  0
    2.0984   -1.6910   -4.4725 O   0  0
    6.0161   -3.9174   -3.9354 H   0  0
    2.6420   -6.0679   -5.5397 H   0  0
    4.6363   -1.8802   -3.7730 H   0  0
    1.2672   -4.0278   -5.3748 H   0  0
    1.6205    1.1273   -1.4713 H   0  0
   -0.0004    0.0130   -0.0050 H   0  0
    0.1516   -0.0940   -3.8664 H   0  0
    2.0891   -1.2829   -0.5645 H   0  0
    2.9371   -0.8744   -2.7968 H   0  0
    7.4210   -7.9342   -5.7579 H   0  0
    6.1863   -8.5537   -4.6357 H   0  0
    7.7997   -8.1232   -4.0215 H   0  0
   -0.1340   -3.3273   -0.7079 H   0  0
    0.1302   -2.3729    0.7745 H   0  0
    4.7345   -7.1180   -5.2130 H   0  0
   -0.3811    2.0859   -1.1596 H   0  0
   -1.4359   -1.4895   -0.9074 H   0  0
    2.5803    1.3137   -3.5221 H   0  0
    1.3240   -4.3187    0.7426 H   0  0
  1  3  2  0
  1  5  1  0
  2  4  1  0
  2  5  2  0
  3  6  1  0
  4  6  2  0
  5 15  1  0
  6 22  1  0
  7 13  1  0
  7 15  1  0
  7 16  2  0
  8  9  1  0
  8 10  1  0
  8 18  1  0
  9 11  1  0
  9 19  1  0
 10 12  1  0
 10 20  1  0
 11 14  1  0
 11 17  1  0
 12 17  1  0
 12 22  1  0
 14 21  1  0
  1 23  1  0
  2 24  1  0
  3 25  1  0
  4 26  1  0
  8 27  1  0
  9 28  1  0
 10 29  1  0
 11 30  1  0
 12 31  1  0
 13 32  1  0
 13 33  1  0
 13 34  1  0
 14 35  1  0
 14 36  1  0
 15 37  1  0
 18 38  1  0
 19 39  1  0
 20 40  1  0
 21 41  1  0
M  END
> <Name>
BR010141

$$$$
BR010142
  SciTegic05062102053D

 36 37  0  0  1  0            999 V2000
    4.9768   -3.9490   -4.2526 C   0  0
    3.0859   -5.1546   -5.1516 C   0  0
    4.1976   -2.7958   -4.1601 C   0  0
    2.3067   -4.0014   -5.0591 C   0  0
    4.4210   -5.1284   -4.7484 C   0  0
    2.8626   -2.8220   -4.5633 C   0  0
    0.7233    0.6893   -1.9268 C   0  0  1  0  0  0
    0.1626   -0.3970   -1.0083 C   0  0  2  0  0  0
    1.0679    0.1207   -3.3030 C   0  0  2  0  0  0
    1.1199   -1.5934   -0.9760 C   0  0  1  0  0  0
    1.9375   -1.1315   -3.1696 C   0  0  1  0  0  0
    0.5950   -2.7518   -0.1363 C   0  0
    5.2089   -6.2944   -4.8420 N   0  0
    1.3267   -2.0883   -2.3049 O   0  0
   -0.2303    1.7405   -2.0532 O   0  0
   -1.1121   -0.8043   -1.5106 O   0  0
    1.7818    1.1166   -4.0347 O   0  0
    1.6836   -3.5897    0.2091 O   0  0
    2.0984   -1.6910   -4.4725 O   0  0
    6.0161   -3.9175   -3.9355 H   0  0
    2.6427   -6.0682   -5.5395 H   0  0
    4.6362   -1.8801   -3.7730 H   0  0
    1.2673   -4.0279   -5.3747 H   0  0
    1.6205    1.1273   -1.4713 H   0  0
   -0.0004    0.0130   -0.0050 H   0  0
    0.1516   -0.0940   -3.8664 H   0  0
    2.0891   -1.2829   -0.5645 H   0  0
    2.9371   -0.8744   -2.7968 H   0  0
   -0.1340   -3.3273   -0.7079 H   0  0
    0.1302   -2.3729    0.7745 H   0  0
    6.1767   -6.2505   -4.5941 H   0  0
    4.8121   -7.1202   -5.2429 H   0  0
   -0.3811    2.0859   -1.1596 H   0  0
   -1.4359   -1.4895   -0.9074 H   0  0
    2.5803    1.3137   -3.5221 H   0  0
    1.3240   -4.3187    0.7426 H   0  0
  1  3  2  0
  1  5  1  0
  2  4  1  0
  2  5  2  0
  3  6  1  0
  4  6  2  0
  5 13  1  0
  6 19  1  0
  7  8  1  0
  7  9  1  0
  7 15  1  0
  8 10  1  0
  8 16  1  0
  9 11  1  0
  9 17  1  0
 10 12  1  0
 10 14  1  0
 11 14  1  0
 11 19  1  0
 12 18  1  0
  1 20  1  0
  2 21  1  0
  3 22  1  0
  4 23  1  0
  7 24  1  0
  8 25  1  0
  9 26  1  0
 10 27  1  0
 11 28  1  0
 12 29  1  0
 12 30  1  0
 13 31  1  0
 13 32  1  0
 15 33  1  0
 16 34  1  0
 17 35  1  0
 18 36  1  0
M  END
> <Name>
BR010142

$$$$
BR010143
  SciTegic05062102053D

 42 43  0  0  1  0            999 V2000
    4.9919   -3.9167   -4.2402 C   0  0
    4.1954   -2.7748   -4.1548 C   0  0
    3.1227   -5.1530   -5.1427 C   0  0
    4.4555   -5.1058   -4.7343 C   0  0
    2.3261   -4.0111   -5.0572 C   0  0
    2.8626   -2.8220   -4.5633 C   0  0
    5.2869   -6.2958   -4.8233 C   0  0
    0.7233    0.6893   -1.9268 C   0  0  1  0  0  0
    0.1626   -0.3970   -1.0083 C   0  0  2  0  0  0
    1.0679    0.1207   -3.3030 C   0  0  2  0  0  0
    1.1199   -1.5934   -0.9760 C   0  0  1  0  0  0
    1.9375   -1.1315   -3.1696 C   0  0  1  0  0  0
    7.1389   -7.4328   -3.8388 C   0  0
    0.5950   -2.7518   -0.1363 C   0  0
    0.9788   -4.0726   -5.4751 N   0  0
    5.1432   -7.1886   -5.6691 O   0  0
    1.3267   -2.0883   -2.3049 O   0  0
   -0.2303    1.7405   -2.0532 O   0  0
   -1.1121   -0.8043   -1.5106 O   0  0
    1.7818    1.1166   -4.0347 O   0  0
    1.6836   -3.5897    0.2091 O   0  0
    2.0984   -1.6910   -4.4725 O   0  0
    6.2529   -6.3083   -3.8545 O   0  0
    6.0296   -3.8680   -3.9196 H   0  0
    4.6194   -1.8515   -3.7688 H   0  0
    2.7049   -6.0807   -5.5284 H   0  0
    1.6205    1.1273   -1.4713 H   0  0
   -0.0004    0.0130   -0.0050 H   0  0
    0.1516   -0.0940   -3.8664 H   0  0
    2.0891   -1.2829   -0.5645 H   0  0
    2.9371   -0.8744   -2.7968 H   0  0
    7.8572   -7.3203   -3.0230 H   0  0
    7.6645   -7.4970   -4.7949 H   0  0
    6.5551   -8.3432   -3.6843 H   0  0
   -0.1340   -3.3273   -0.7079 H   0  0
    0.1302   -2.3729    0.7745 H   0  0
    0.6304   -4.9217   -5.8699 H   0  0
    0.4257   -3.2407   -5.4563 H   0  0
   -0.3811    2.0859   -1.1596 H   0  0
   -1.4359   -1.4895   -0.9074 H   0  0
    2.5803    1.3137   -3.5221 H   0  0
    1.3240   -4.3187    0.7426 H   0  0
  1  2  1  0
  1  4  2  0
  2  6  2  0
  3  4  1  0
  3  5  2  0
  4  7  1  0
  5  6  1  0
  5 15  1  0
  6 22  1  0
  7 16  2  0
  7 23  1  0
  8  9  1  0
  8 10  1  0
  8 18  1  0
  9 11  1  0
  9 19  1  0
 10 12  1  0
 10 20  1  0
 11 14  1  0
 11 17  1  0
 12 17  1  0
 12 22  1  0
 13 23  1  0
 14 21  1  0
  1 24  1  0
  2 25  1  0
  3 26  1  0
  8 27  1  0
  9 28  1  0
 10 29  1  0
 11 30  1  0
 12 31  1  0
 13 32  1  0
 13 33  1  0
 13 34  1  0
 14 35  1  0
 14 36  1  0
 15 37  1  0
 15 38  1  0
 18 39  1  0
 19 40  1  0
 20 41  1  0
 21 42  1  0
M  END
> <Name>
BR010143

$$$$
BR010144
  SciTegic05062102053D

 42 43  0  0  1  0            999 V2000
    3.0860   -5.1545   -5.1515 C   0  0
    4.9769   -3.9490   -4.2525 C   0  0
    2.3068   -4.0014   -5.0590 C   0  0
    4.1976   -2.7957   -4.1600 C   0  0
    4.4211   -5.1284   -4.7482 C   0  0
    2.8626   -2.8220   -4.5633 C   0  0
    0.7233    0.6893   -1.9268 C   0  0  1  0  0  0
    0.1626   -0.3970   -1.0083 C   0  0  2  0  0  0
    1.0679    0.1207   -3.3030 C   0  0  2  0  0  0
    1.1199   -1.5934   -0.9760 C   0  0  1  0  0  0
    1.9375   -1.1315   -3.1696 C   0  0  1  0  0  0
    4.1696   -7.9790   -3.0202 C   0  0
    0.5950   -2.7518   -0.1363 C   0  0
    5.2188   -6.3086   -4.8428 N   0  0
    6.6779   -8.1015   -3.6990 O   0  0
    5.8978   -6.1430   -2.3202 O   0  0
    1.3267   -2.0883   -2.3049 O   0  0
   -0.2303    1.7405   -2.0532 O   0  0
   -1.1121   -0.8043   -1.5106 O   0  0
    1.7818    1.1166   -4.0347 O   0  0
    1.6836   -3.5897    0.2091 O   0  0
    2.0984   -1.6910   -4.4725 O   0  0
    5.6741   -7.1022   -3.3836 S   0  0
    2.6435   -6.0684   -5.5393 H   0  0
    6.0161   -3.9178   -3.9354 H   0  0
    1.2674   -4.0280   -5.3748 H   0  0
    4.6362   -1.8801   -3.7728 H   0  0
    1.6205    1.1273   -1.4713 H   0  0
   -0.0004    0.0130   -0.0050 H   0  0
    0.1516   -0.0940   -3.8664 H   0  0
    2.0891   -1.2829   -0.5645 H   0  0
    2.9371   -0.8744   -2.7968 H   0  0
    4.3135   -8.5419   -2.0966 H   0  0
    3.3661   -7.2503   -2.9027 H   0  0
    3.9555   -8.6541   -3.8501 H   0  0
   -0.1340   -3.3273   -0.7079 H   0  0
    0.1302   -2.3729    0.7745 H   0  0
    4.9466   -6.9443   -5.6108 H   0  0
   -0.3811    2.0859   -1.1596 H   0  0
   -1.4359   -1.4895   -0.9074 H   0  0
    2.5803    1.3137   -3.5221 H   0  0
    1.3240   -4.3187    0.7426 H   0  0
  1  3  2  0
  1  5  1  0
  2  4  1  0
  2  5  2  0
  3  6  1  0
  4  6  2  0
  5 14  1  0
  6 22  1  0
  7  8  1  0
  7  9  1  0
  7 18  1  0
  8 10  1  0
  8 19  1  0
  9 11  1  0
  9 20  1  0
 10 13  1  0
 10 17  1  0
 11 17  1  0
 11 22  1  0
 12 23  1  0
 13 21  1  0
 14 23  1  0
 15 23  2  0
 16 23  2  0
  1 24  1  0
  2 25  1  0
  3 26  1  0
  4 27  1  0
  7 28  1  0
  8 29  1  0
  9 30  1  0
 10 31  1  0
 11 32  1  0
 12 33  1  0
 12 34  1  0
 12 35  1  0
 13 36  1  0
 13 37  1  0
 14 38  1  0
 18 39  1  0
 19 40  1  0
 20 41  1  0
 21 42  1  0
M  END
> <Name>
BR010144

$$$$
BR010145
  SciTegic05062102053D

 47 48  0  0  1  0            999 V2000
    4.4852   -3.9407   -6.0909 C   0  0
    3.4631   -3.0086   -5.9121 C   0  0
    4.7858   -4.0706   -3.6972 C   0  0
    5.1466   -4.4718   -4.9835 C   0  0
    3.7637   -3.1384   -3.5183 C   0  0
    3.1024   -2.6074   -4.6258 C   0  0
    6.2118   -5.4440   -5.1710 C   0  0
    3.9683   -3.1750   -1.0121 C   0  0
    1.2654    1.8693   -5.2896 C   0  0  1  0  0  0
    2.5834    2.4441   -4.7695 C   0  0  2  0  0  0
    1.0597    0.4365   -4.7990 C   0  0  2  0  0  0
    3.7341    1.4895   -5.1065 C   0  0  1  0  0  0
    2.2984   -0.4163   -5.0822 C   0  0  1  0  0  0
    3.3082   -2.5100    0.1696 C   0  0
    8.2478   -6.2765   -4.2471 C   0  0
    5.0756    1.9582   -4.5560 C   0  0
    3.4135   -2.7463   -2.2242 N   0  0
    6.2724   -6.2430   -6.1149 O   0  0
    4.8783   -3.9817   -0.8514 O   0  0
    3.4725    0.1952   -4.5496 O   0  0
    0.1870    2.6961   -4.8610 O   0  0
    2.4816    2.6062   -3.3530 O   0  0
   -0.0626   -0.1167   -5.4857 O   0  0
    6.1103    1.3034   -5.2679 O   0  0
    2.0984   -1.6910   -4.4725 O   0  0
    7.1445   -5.3672   -4.1729 O   0  0
    4.7587   -4.2464   -7.0977 H   0  0
    2.9516   -2.6000   -6.7795 H   0  0
    5.3025   -4.4856   -2.8341 H   0  0
    1.2645    1.8893   -6.3868 H   0  0
    2.7494    3.4390   -5.1984 H   0  0
    0.8139    0.4318   -3.7300 H   0  0
    3.8265    1.3886   -6.1956 H   0  0
    2.4192   -0.5831   -6.1601 H   0  0
    2.4577   -3.1103    0.5048 H   0  0
    2.9501   -1.5170   -0.1167 H   0  0
    4.0267   -2.4039    0.9877 H   0  0
    8.9141   -6.1122   -3.3967 H   0  0
    8.7889   -6.1186   -5.1834 H   0  0
    7.8675   -7.3003   -4.2165 H   0  0
    5.1534    1.7075   -3.4975 H   0  0
    5.1769    3.0363   -4.6858 H   0  0
    2.6566   -2.0581   -2.1474 H   0  0
    0.3505    3.5776   -5.2307 H   0  0
    3.3297    2.9703   -3.0592 H   0  0
    0.1546   -0.0927   -6.4299 H   0  0
    6.9532    1.6182   -4.8994 H   0  0
  1  2  1  0
  1  4  2  0
  2  6  2  0
  3  4  1  0
  3  5  2  0
  4  7  1  0
  5  6  1  0
  5 17  1  0
  6 25  1  0
  7 18  2  0
  7 26  1  0
  8 14  1  0
  8 17  1  0
  8 19  2  0
  9 10  1  0
  9 11  1  0
  9 21  1  0
 10 12  1  0
 10 22  1  0
 11 13  1  0
 11 23  1  0
 12 16  1  0
 12 20  1  0
 13 20  1  0
 13 25  1  0
 15 26  1  0
 16 24  1  0
  1 27  1  0
  2 28  1  0
  3 29  1  0
  9 30  1  0
 10 31  1  0
 11 32  1  0
 12 33  1  0
 13 34  1  0
 14 35  1  0
 14 36  1  0
 14 37  1  0
 15 38  1  0
 15 39  1  0
 15 40  1  0
 16 41  1  0
 16 42  1  0
 17 43  1  0
 21 44  1  0
 22 45  1  0
 23 46  1  0
 24 47  1  0
M  END
> <Name>
BR010145

$$$$
BR010146
  SciTegic05062102053D

 48 49  0  0  1  0            999 V2000
    4.4857   -3.9421   -6.0892 C   0  0
    3.4638   -3.0096   -5.9116 C   0  0
    4.7848   -4.0705   -3.6952 C   0  0
    5.1462   -4.4726   -4.9810 C   0  0
    3.7629   -3.1379   -3.5176 C   0  0
    3.1024   -2.6074   -4.6258 C   0  0
    6.2116   -5.4451   -5.1669 C   0  0
   -1.6400   -1.5932   -4.7009 C   0  0  1  0  0  0
   -1.6798   -1.2248   -6.1843 C   0  0  2  0  0  0
   -0.2440   -1.3752   -4.1182 C   0  0  2  0  0  0
   -0.5615   -1.9600   -6.9312 C   0  0  1  0  0  0
    0.8176   -2.0545   -4.9863 C   0  0  1  0  0  0
    8.2467   -6.2772   -4.2406 C   0  0
    4.1664   -0.1645   -2.0464 C   0  0
   -0.4889   -1.5885   -8.4074 C   0  0
    3.4034   -2.7349   -2.1937 N   0  0
    6.2729   -6.2448   -6.1102 O   0  0
    4.0667   -1.6829    0.0636 O   0  0
    5.8801   -2.0988   -1.6345 O   0  0
    0.7073   -1.6396   -6.3471 O   0  0
   -2.5967   -0.8097   -3.9930 O   0  0
   -1.5029    0.1882   -6.3071 O   0  0
   -0.2120   -1.9361   -2.8062 O   0  0
    0.2252   -2.6009   -9.0940 O   0  0
    2.0984   -1.6910   -4.4725 O   0  0
    7.1434   -5.3677   -4.1680 O   0  0
    4.5096   -1.7501   -1.3165 S   0  0
    4.7593   -4.2481   -7.0957 H   0  0
    2.9528   -2.6005   -6.7789 H   0  0
    5.2998   -4.4840   -2.8308 H   0  0
   -1.9342   -2.6430   -4.5759 H   0  0
   -2.6649   -1.4654   -6.6002 H   0  0
   -0.0390   -0.3029   -4.0120 H   0  0
   -0.7158   -3.0443   -6.8575 H   0  0
    0.7351   -3.1468   -4.9201 H   0  0
    8.9123   -6.1123   -3.3898 H   0  0
    8.7886   -6.1200   -5.1766 H   0  0
    7.8662   -7.3009   -4.2096 H   0  0
    4.8119    0.5784   -1.5752 H   0  0
    4.3717   -0.2261   -3.1161 H   0  0
    3.1165    0.0750   -1.8714 H   0  0
    0.0309   -0.6374   -8.5282 H   0  0
   -1.4940   -1.5125   -8.8237 H   0  0
    2.4113   -2.4687   -2.0881 H   0  0
   -3.4625   -1.0159   -4.3783 H   0  0
   -1.5334    0.3848   -7.2551 H   0  0
   -0.4114   -2.8792   -2.9063 H   0  0
    0.2577   -2.3415  -10.0305 H   0  0
  1  2  1  0
  1  4  2  0
  2  6  2  0
  3  4  1  0
  3  5  2  0
  4  7  1  0
  5  6  1  0
  5 16  1  0
  6 25  1  0
  7 17  2  0
  7 26  1  0
  8  9  1  0
  8 10  1  0
  8 21  1  0
  9 11  1  0
  9 22  1  0
 10 12  1  0
 10 23  1  0
 11 15  1  0
 11 20  1  0
 12 20  1  0
 12 25  1  0
 13 26  1  0
 14 27  1  0
 15 24  1  0
 16 27  1  0
 18 27  2  0
 19 27  2  0
  1 28  1  0
  2 29  1  0
  3 30  1  0
  8 31  1  0
  9 32  1  0
 10 33  1  0
 11 34  1  0
 12 35  1  0
 13 36  1  0
 13 37  1  0
 13 38  1  0
 14 39  1  0
 14 40  1  0
 14 41  1  0
 15 42  1  0
 15 43  1  0
 16 44  1  0
 21 45  1  0
 22 46  1  0
 23 47  1  0
 24 48  1  0
M  END
> <Name>
BR010146

$$$$
BR010147
  SciTegic05062102053D

 36 37  0  0  1  0            999 V2000
    4.9769   -3.9488   -4.2523 C   0  0
    3.0861   -5.1547   -5.1512 C   0  0
    4.1976   -2.7957   -4.1600 C   0  0
    2.3068   -4.0015   -5.0589 C   0  0
    4.4211   -5.1283   -4.7480 C   0  0
    2.8626   -2.8220   -4.5633 C   0  0
    5.2433   -6.3451   -4.8454 C   0  0
    0.7233    0.6893   -1.9268 C   0  0  1  0  0  0
    0.1626   -0.3970   -1.0083 C   0  0  2  0  0  0
    1.0679    0.1207   -3.3030 C   0  0  2  0  0  0
    1.1199   -1.5934   -0.9760 C   0  0  1  0  0  0
    1.9375   -1.1315   -3.1696 C   0  0  1  0  0  0
    0.5950   -2.7518   -0.1363 C   0  0
    4.7059   -7.4211   -5.3062 O   0  5
    6.4731   -6.2943   -4.4663 O   0  0
    1.3267   -2.0883   -2.3049 O   0  0
   -0.2303    1.7405   -2.0532 O   0  0
   -1.1121   -0.8043   -1.5106 O   0  0
    1.7818    1.1166   -4.0347 O   0  0
    1.6836   -3.5897    0.2091 O   0  0
    2.0984   -1.6910   -4.4725 O   0  0
    6.0160   -3.9177   -3.9351 H   0  0
    2.6434   -6.0686   -5.5388 H   0  0
    4.6356   -1.8797   -3.7731 H   0  0
    1.2675   -4.0288   -5.3748 H   0  0
    1.6205    1.1273   -1.4713 H   0  0
   -0.0004    0.0130   -0.0050 H   0  0
    0.1516   -0.0940   -3.8664 H   0  0
    2.0891   -1.2829   -0.5645 H   0  0
    2.9371   -0.8744   -2.7968 H   0  0
   -0.1340   -3.3273   -0.7079 H   0  0
    0.1302   -2.3729    0.7745 H   0  0
   -0.3811    2.0859   -1.1596 H   0  0
   -1.4359   -1.4895   -0.9074 H   0  0
    2.5803    1.3137   -3.5221 H   0  0
    1.3240   -4.3187    0.7426 H   0  0
  1  3  2  0
  1  5  1  0
  2  4  1  0
  2  5  2  0
  3  6  1  0
  4  6  2  0
  5  7  1  0
  6 21  1  0
  7 14  1  0
  7 15  2  0
  8  9  1  0
  8 10  1  0
  8 17  1  0
  9 11  1  0
  9 18  1  0
 10 12  1  0
 10 19  1  0
 11 13  1  0
 11 16  1  0
 12 16  1  0
 12 21  1  0
 13 20  1  0
  1 22  1  0
  2 23  1  0
  3 24  1  0
  4 25  1  0
  8 26  1  0
  9 27  1  0
 10 28  1  0
 11 29  1  0
 12 30  1  0
 13 31  1  0
 13 32  1  0
 17 33  1  0
 18 34  1  0
 19 35  1  0
 20 36  1  0
M  CHG  1  14  -1
M  END
> <Name>
BR010147

$$$$
BR010148
  SciTegic05062102053D

 73 75  0  0  1  0            999 V2000
    4.9640  -11.3687   -0.7001 C   0  0
    5.9151  -10.3666   -0.5084 C   0  0
    4.2872  -11.4645   -1.9161 C   0  0
    6.1893   -9.4602   -1.5325 C   0  0
    4.5613  -10.5580   -2.9402 C   0  0
    3.0859   -5.1542   -5.1529 C   0  0
    4.9774   -3.9487   -4.2551 C   0  0
    2.3065   -4.0012   -5.0590 C   0  0
    4.1980   -2.7957   -4.1613 C   0  0
    5.5124   -9.5559   -2.7484 C   0  0
    4.4213   -5.1280   -4.7509 C   0  0
    2.8626   -2.8220   -4.5633 C   0  0
   -0.1514    2.7277   -1.1123 C   0  0
   -2.1676   -0.5982   -0.6712 C   0  0
    1.0128    1.9772   -4.7638 C   0  0
    1.2169   -4.9314    0.5319 C   0  0
    0.7233    0.6893   -1.9268 C   0  0  1  0  0  0
    0.1626   -0.3970   -1.0083 C   0  0  2  0  0  0
    1.0679    0.1207   -3.3030 C   0  0  2  0  0  0
    1.1199   -1.5934   -0.9760 C   0  0  1  0  0  0
    1.9375   -1.1315   -3.1696 C   0  0  1  0  0  0
   -1.2083    3.7587   -1.3695 C   0  0
   -3.4304   -1.0693   -1.3265 C   0  0
    1.8918    2.9615   -5.4741 C   0  0
    2.3025   -5.9557    0.3958 C   0  0
    5.8067   -8.5811   -3.8503 C   0  0
    5.2549   -6.3604   -4.8517 C   0  0
    0.5950   -2.7518   -0.1363 C   0  0
    4.9471   -7.3698   -3.8012 N   0  3
    0.6512    2.7844   -0.1904 O   0  0
   -2.1187   -0.1064    0.4481 O   0  0
   -0.2082    1.9681   -4.8419 O   0  0
    0.1969   -5.0970    1.1871 O   0  0
    1.3267   -2.0883   -2.3049 O   0  0
    2.0984   -1.6910   -4.4725 O   0  0
   -0.2303    1.7405   -2.0532 O   0  0
   -1.1121   -0.8043   -1.5106 O   0  0
    1.7818    1.1166   -4.0347 O   0  0
    1.5405   -3.8057   -0.1784 O   0  0
    4.7516  -12.0753    0.0969 H   0  0
    6.4430  -10.2926    0.4379 H   0  0
    3.5474  -12.2453   -2.0661 H   0  0
    6.9318   -8.6825   -1.3741 H   0  0
    4.0290  -10.6402   -3.8841 H   0  0
    2.6444   -6.0685   -5.5402 H   0  0
    6.0171   -3.9190   -3.9394 H   0  0
    1.2667   -4.0279   -5.3741 H   0  0
    4.6371   -1.8803   -3.7746 H   0  0
    1.6205    1.1273   -1.4713 H   0  0
   -0.0004    0.0130   -0.0050 H   0  0
    0.1516   -0.0940   -3.8664 H   0  0
    2.0891   -1.2829   -0.5645 H   0  0
    2.9371   -0.8744   -2.7968 H   0  0
   -0.8169    4.5334   -2.0335 H   0  0
   -1.5403    4.1936   -0.4233 H   0  0
   -2.0667    3.2849   -1.8544 H   0  0
   -3.8817   -0.2512   -1.8932 H   0  0
   -4.1244   -1.4424   -0.5691 H   0  0
   -3.1981   -1.8852   -2.0171 H   0  0
    2.0530    3.8384   -4.8422 H   0  0
    1.4342    3.2496   -6.4239 H   0  0
    2.8609    2.4984   -5.6816 H   0  0
    2.1018   -6.5965   -0.4664 H   0  0
    2.3687   -6.5498    1.3107 H   0  0
    3.2601   -5.4505    0.2393 H   0  0
    6.8441   -8.2326   -3.8041 H   0  0
    5.6514   -9.0373   -4.8339 H   0  0
    5.1136   -6.8671   -5.8162 H   0  0
    6.3256   -6.1335   -4.7564 H   0  0
   -0.3548   -3.1050   -0.5393 H   0  0
    0.4587   -2.4326    0.8975 H   0  0
    3.9612   -7.6506   -3.8852 H   0  0
    5.0363   -6.9287   -2.8763 H   0  0
  1  2  1  0
  1  3  2  0
  2  4  2  0
  3  5  1  0
  4 10  1  0
  5 10  2  0
  6  8  2  0
  6 11  1  0
  7  9  1  0
  7 11  2  0
  8 12  1  0
  9 12  2  0
 10 26  1  0
 11 27  1  0
 12 35  1  0
 13 22  1  0
 13 30  2  0
 13 36  1  0
 14 23  1  0
 14 31  2  0
 14 37  1  0
 15 24  1  0
 15 32  2  0
 15 38  1  0
 16 25  1  0
 16 33  2  0
 16 39  1  0
 17 18  1  0
 17 19  1  0
 17 36  1  0
 18 20  1  0
 18 37  1  0
 19 21  1  0
 19 38  1  0
 20 28  1  0
 20 34  1  0
 21 34  1  0
 21 35  1  0
 26 29  1  0
 27 29  1  0
 28 39  1  0
  1 40  1  0
  2 41  1  0
  3 42  1  0
  4 43  1  0
  5 44  1  0
  6 45  1  0
  7 46  1  0
  8 47  1  0
  9 48  1  0
 17 49  1  0
 18 50  1  0
 19 51  1  0
 20 52  1  0
 21 53  1  0
 22 54  1  0
 22 55  1  0
 22 56  1  0
 23 57  1  0
 23 58  1  0
 23 59  1  0
 24 60  1  0
 24 61  1  0
 24 62  1  0
 25 63  1  0
 25 64  1  0
 25 65  1  0
 26 66  1  0
 26 67  1  0
 27 68  1  0
 27 69  1  0
 28 70  1  0
 28 71  1  0
 29 72  1  0
 29 73  1  0
M  CHG  1  29   1
M  END
> <Name>
BR010148

$$$$
BR010149
  SciTegic05062102053D

 72 73  0  0  1  0            999 V2000
    3.0859   -5.1542   -5.1529 C   0  0
    4.9774   -3.9487   -4.2551 C   0  0
    2.3065   -4.0012   -5.0590 C   0  0
    4.1980   -2.7957   -4.1613 C   0  0
    4.4213   -5.1280   -4.7509 C   0  0
    2.8626   -2.8220   -4.5633 C   0  0
   -0.1514    2.7277   -1.1123 C   0  0
   -2.1676   -0.5982   -0.6712 C   0  0
    1.0128    1.9772   -4.7638 C   0  0
    1.2169   -4.9314    0.5319 C   0  0
    0.7233    0.6893   -1.9268 C   0  0  1  0  0  0
    0.1626   -0.3970   -1.0083 C   0  0  2  0  0  0
    1.0679    0.1207   -3.3030 C   0  0  2  0  0  0
    1.1199   -1.5934   -0.9760 C   0  0  1  0  0  0
    1.9375   -1.1315   -3.1696 C   0  0  1  0  0  0
   -1.2083    3.7587   -1.3695 C   0  0
   -3.4304   -1.0693   -1.3265 C   0  0
    1.8918    2.9615   -5.4741 C   0  0
    2.3025   -5.9557    0.3958 C   0  0
    5.7198  -11.8291   -1.7472 C   0  0
    5.2549   -6.3604   -4.8517 C   0  0
    0.5950   -2.7518   -0.1363 C   0  0
    6.1120  -10.8797   -2.8681 C   0  0
    5.3017   -9.5851   -2.8154 C   0  0
    5.7279   -8.6287   -3.9192 C   0  0
    4.9471   -7.3698   -3.8012 N   0  3
    0.6512    2.7844   -0.1904 O   0  0
   -2.1187   -0.1064    0.4481 O   0  0
   -0.2082    1.9681   -4.8419 O   0  0
    0.1969   -5.0970    1.1871 O   0  0
    1.3267   -2.0883   -2.3049 O   0  0
    2.0984   -1.6910   -4.4725 O   0  0
   -0.2303    1.7405   -2.0532 O   0  0
   -1.1121   -0.8043   -1.5106 O   0  0
    1.7818    1.1166   -4.0347 O   0  0
    1.5405   -3.8057   -0.1784 O   0  0
    2.6444   -6.0685   -5.5402 H   0  0
    6.0171   -3.9190   -3.9394 H   0  0
    1.2667   -4.0279   -5.3741 H   0  0
    4.6371   -1.8803   -3.7746 H   0  0
    1.6205    1.1273   -1.4713 H   0  0
   -0.0004    0.0130   -0.0050 H   0  0
    0.1516   -0.0940   -3.8664 H   0  0
    2.0891   -1.2829   -0.5645 H   0  0
    2.9371   -0.8744   -2.7968 H   0  0
   -0.8169    4.5334   -2.0335 H   0  0
   -1.5403    4.1936   -0.4233 H   0  0
   -2.0667    3.2849   -1.8544 H   0  0
   -3.8817   -0.2512   -1.8932 H   0  0
   -4.1244   -1.4424   -0.5691 H   0  0
   -3.1981   -1.8852   -2.0171 H   0  0
    2.0530    3.8384   -4.8422 H   0  0
    1.4342    3.2496   -6.4239 H   0  0
    2.8609    2.4984   -5.6816 H   0  0
    2.1018   -6.5965   -0.4664 H   0  0
    2.3687   -6.5498    1.3107 H   0  0
    3.2601   -5.4505    0.2393 H   0  0
    4.6545  -12.0766   -1.7973 H   0  0
    5.9240  -11.3852   -0.7675 H   0  0
    6.2889  -12.7609   -1.8233 H   0  0
    5.1136   -6.8671   -5.8162 H   0  0
    6.3256   -6.1335   -4.7564 H   0  0
   -0.3548   -3.1050   -0.5393 H   0  0
    0.4587   -2.4326    0.8975 H   0  0
    7.1816  -10.6527   -2.7892 H   0  0
    5.9562  -11.3777   -3.8322 H   0  0
    4.2337   -9.8158   -2.9150 H   0  0
    5.4363   -9.1073   -1.8369 H   0  0
    6.7844   -8.3557   -3.8399 H   0  0
    5.5260   -9.0352   -4.9146 H   0  0
    5.1153   -6.9526   -2.8762 H   0  0
    3.9428   -7.5900   -3.8322 H   0  0
  1  3  2  0
  1  5  1  0
  2  4  1  0
  2  5  2  0
  3  6  1  0
  4  6  2  0
  5 21  1  0
  6 32  1  0
  7 16  1  0
  7 27  2  0
  7 33  1  0
  8 17  1  0
  8 28  2  0
  8 34  1  0
  9 18  1  0
  9 29  2  0
  9 35  1  0
 10 19  1  0
 10 30  2  0
 10 36  1  0
 11 12  1  0
 11 13  1  0
 11 33  1  0
 12 14  1  0
 12 34  1  0
 13 15  1  0
 13 35  1  0
 14 22  1  0
 14 31  1  0
 15 31  1  0
 15 32  1  0
 20 23  1  0
 21 26  1  0
 22 36  1  0
 23 24  1  0
 24 25  1  0
 25 26  1  0
  1 37  1  0
  2 38  1  0
  3 39  1  0
  4 40  1  0
 11 41  1  0
 12 42  1  0
 13 43  1  0
 14 44  1  0
 15 45  1  0
 16 46  1  0
 16 47  1  0
 16 48  1  0
 17 49  1  0
 17 50  1  0
 17 51  1  0
 18 52  1  0
 18 53  1  0
 18 54  1  0
 19 55  1  0
 19 56  1  0
 19 57  1  0
 20 58  1  0
 20 59  1  0
 20 60  1  0
 21 61  1  0
 21 62  1  0
 22 63  1  0
 22 64  1  0
 23 65  1  0
 23 66  1  0
 24 67  1  0
 24 68  1  0
 25 69  1  0
 25 70  1  0
 26 71  1  0
 26 72  1  0
M  CHG  1  26   1
M  END
> <Name>
BR010149

$$$$
BR010150
  SciTegic05062102053D

 78 79  0  0  1  0            999 V2000
    3.0859   -5.1542   -5.1529 C   0  0
    4.9774   -3.9487   -4.2551 C   0  0
    2.3065   -4.0012   -5.0590 C   0  0
    4.1980   -2.7957   -4.1613 C   0  0
    4.4213   -5.1280   -4.7509 C   0  0
    2.8626   -2.8220   -4.5633 C   0  0
   -0.1514    2.7277   -1.1123 C   0  0
   -2.1676   -0.5982   -0.6712 C   0  0
    1.0128    1.9772   -4.7638 C   0  0
    1.2169   -4.9314    0.5319 C   0  0
    0.7233    0.6893   -1.9268 C   0  0  1  0  0  0
    0.1626   -0.3970   -1.0083 C   0  0  2  0  0  0
    1.0679    0.1207   -3.3030 C   0  0  2  0  0  0
    1.1199   -1.5934   -0.9760 C   0  0  1  0  0  0
    1.9375   -1.1315   -3.1696 C   0  0  1  0  0  0
   -1.2083    3.7587   -1.3695 C   0  0
   -3.4304   -1.0693   -1.3265 C   0  0
    1.8918    2.9615   -5.4741 C   0  0
    2.3025   -5.9557    0.3958 C   0  0
    6.0333  -14.1356   -0.7605 C   0  0
    5.2549   -6.3604   -4.8517 C   0  0
    0.5950   -2.7518   -0.1363 C   0  0
    6.4522  -13.1699   -1.8576 C   0  0
    5.6645  -11.8621   -1.7834 C   0  0
    6.1123  -10.8807   -2.8678 C   0  0
    5.3015   -9.5850   -2.8154 C   0  0
    5.7279   -8.6287   -3.9192 C   0  0
    4.9471   -7.3698   -3.8012 N   0  3
    0.6512    2.7844   -0.1904 O   0  0
   -2.1187   -0.1064    0.4481 O   0  0
   -0.2082    1.9681   -4.8419 O   0  0
    0.1969   -5.0970    1.1871 O   0  0
    1.3267   -2.0883   -2.3049 O   0  0
    2.0984   -1.6910   -4.4725 O   0  0
   -0.2303    1.7405   -2.0532 O   0  0
   -1.1121   -0.8043   -1.5106 O   0  0
    1.7818    1.1166   -4.0347 O   0  0
    1.5405   -3.8057   -0.1784 O   0  0
    2.6444   -6.0685   -5.5402 H   0  0
    6.0171   -3.9190   -3.9394 H   0  0
    1.2667   -4.0279   -5.3741 H   0  0
    4.6371   -1.8803   -3.7746 H   0  0
    1.6205    1.1273   -1.4713 H   0  0
   -0.0004    0.0130   -0.0050 H   0  0
    0.1516   -0.0940   -3.8664 H   0  0
    2.0891   -1.2829   -0.5645 H   0  0
    2.9371   -0.8744   -2.7968 H   0  0
   -0.8169    4.5334   -2.0335 H   0  0
   -1.5403    4.1936   -0.4233 H   0  0
   -2.0667    3.2849   -1.8544 H   0  0
   -3.8817   -0.2512   -1.8932 H   0  0
   -4.1244   -1.4424   -0.5691 H   0  0
   -3.1981   -1.8852   -2.0171 H   0  0
    2.0530    3.8384   -4.8422 H   0  0
    1.4342    3.2496   -6.4239 H   0  0
    2.8609    2.4984   -5.6816 H   0  0
    2.1018   -6.5965   -0.4664 H   0  0
    2.3687   -6.5498    1.3107 H   0  0
    3.2601   -5.4505    0.2393 H   0  0
    6.1778  -13.6913    0.2295 H   0  0
    4.9748  -14.3929   -0.8660 H   0  0
    6.6149  -15.0617   -0.8099 H   0  0
    5.1136   -6.8671   -5.8162 H   0  0
    6.3256   -6.1335   -4.7564 H   0  0
   -0.3548   -3.1050   -0.5393 H   0  0
    0.4587   -2.4326    0.8975 H   0  0
    6.2953  -13.6442   -2.8333 H   0  0
    7.5251  -12.9644   -1.7654 H   0  0
    4.5938  -12.0714   -1.8967 H   0  0
    5.8017  -11.4059   -0.7954 H   0  0
    7.1775  -10.6528   -2.7397 H   0  0
    5.9976  -11.3458   -3.8545 H   0  0
    5.4356   -9.1071   -1.8369 H   0  0
    4.2337   -9.8159   -2.9156 H   0  0
    6.7843   -8.3557   -3.8399 H   0  0
    5.5260   -9.0353   -4.9146 H   0  0
    5.1153   -6.9526   -2.8762 H   0  0
    3.9428   -7.5900   -3.8322 H   0  0
  1  3  2  0
  1  5  1  0
  2  4  1  0
  2  5  2  0
  3  6  1  0
  4  6  2  0
  5 21  1  0
  6 34  1  0
  7 16  1  0
  7 29  2  0
  7 35  1  0
  8 17  1  0
  8 30  2  0
  8 36  1  0
  9 18  1  0
  9 31  2  0
  9 37  1  0
 10 19  1  0
 10 32  2  0
 10 38  1  0
 11 12  1  0
 11 13  1  0
 11 35  1  0
 12 14  1  0
 12 36  1  0
 13 15  1  0
 13 37  1  0
 14 22  1  0
 14 33  1  0
 15 33  1  0
 15 34  1  0
 20 23  1  0
 21 28  1  0
 22 38  1  0
 23 24  1  0
 24 25  1  0
 25 26  1  0
 26 27  1  0
 27 28  1  0
  1 39  1  0
  2 40  1  0
  3 41  1  0
  4 42  1  0
 11 43  1  0
 12 44  1  0
 13 45  1  0
 14 46  1  0
 15 47  1  0
 16 48  1  0
 16 49  1  0
 16 50  1  0
 17 51  1  0
 17 52  1  0
 17 53  1  0
 18 54  1  0
 18 55  1  0
 18 56  1  0
 19 57  1  0
 19 58  1  0
 19 59  1  0
 20 60  1  0
 20 61  1  0
 20 62  1  0
 21 63  1  0
 21 64  1  0
 22 65  1  0
 22 66  1  0
 23 67  1  0
 23 68  1  0
 24 69  1  0
 24 70  1  0
 25 71  1  0
 25 72  1  0
 26 73  1  0
 26 74  1  0
 27 75  1  0
 27 76  1  0
 28 77  1  0
 28 78  1  0
M  CHG  1  28   1
M  END
> <Name>
BR010150

$$$$
BR010151
  SciTegic05062102053D

 69 70  0  0  1  0            999 V2000
    3.0859   -5.1542   -5.1529 C   0  0
    4.9774   -3.9487   -4.2551 C   0  0
    2.3065   -4.0012   -5.0590 C   0  0
    4.1980   -2.7957   -4.1613 C   0  0
    4.4213   -5.1280   -4.7509 C   0  0
    2.8626   -2.8220   -4.5633 C   0  0
   -0.1514    2.7277   -1.1123 C   0  0
   -2.1676   -0.5982   -0.6712 C   0  0
    1.0128    1.9772   -4.7638 C   0  0
    1.2169   -4.9314    0.5319 C   0  0
    0.7233    0.6893   -1.9268 C   0  0  1  0  0  0
    0.1626   -0.3970   -1.0083 C   0  0  2  0  0  0
    1.0679    0.1207   -3.3030 C   0  0  2  0  0  0
    1.1199   -1.5934   -0.9760 C   0  0  1  0  0  0
    1.9375   -1.1315   -3.1696 C   0  0  1  0  0  0
   -1.2083    3.7587   -1.3695 C   0  0
   -3.4304   -1.0693   -1.3265 C   0  0
    1.8918    2.9615   -5.4741 C   0  0
    2.3025   -5.9557    0.3958 C   0  0
    4.9733   -9.7334   -3.1972 C   0  0
    7.1103   -8.3956   -3.3310 C   0  0
    5.2549   -6.3604   -4.8517 C   0  0
    0.5950   -2.7518   -0.1363 C   0  0
    5.7279   -8.6287   -3.9192 C   0  0
    4.9471   -7.3698   -3.8012 N   0  3
    0.6512    2.7844   -0.1904 O   0  0
   -2.1187   -0.1064    0.4481 O   0  0
   -0.2082    1.9681   -4.8419 O   0  0
    0.1969   -5.0970    1.1871 O   0  0
    1.3267   -2.0883   -2.3049 O   0  0
    2.0984   -1.6910   -4.4725 O   0  0
   -0.2303    1.7405   -2.0532 O   0  0
   -1.1121   -0.8043   -1.5106 O   0  0
    1.7818    1.1166   -4.0347 O   0  0
    1.5405   -3.8057   -0.1784 O   0  0
    2.6444   -6.0685   -5.5402 H   0  0
    6.0171   -3.9190   -3.9394 H   0  0
    1.2667   -4.0279   -5.3741 H   0  0
    4.6371   -1.8803   -3.7746 H   0  0
    1.6205    1.1273   -1.4713 H   0  0
   -0.0004    0.0130   -0.0050 H   0  0
    0.1516   -0.0940   -3.8664 H   0  0
    2.0891   -1.2829   -0.5645 H   0  0
    2.9371   -0.8744   -2.7968 H   0  0
   -0.8169    4.5334   -2.0335 H   0  0
   -1.5403    4.1936   -0.4233 H   0  0
   -2.0667    3.2849   -1.8544 H   0  0
   -3.8817   -0.2512   -1.8932 H   0  0
   -4.1244   -1.4424   -0.5691 H   0  0
   -3.1981   -1.8852   -2.0171 H   0  0
    2.0530    3.8384   -4.8422 H   0  0
    1.4342    3.2496   -6.4239 H   0  0
    2.8609    2.4984   -5.6816 H   0  0
    2.1018   -6.5965   -0.4664 H   0  0
    2.3687   -6.5498    1.3107 H   0  0
    3.2601   -5.4505    0.2393 H   0  0
    4.9020   -9.5147   -2.1266 H   0  0
    3.9554   -9.8466   -3.5866 H   0  0
    5.4852  -10.6955   -3.3082 H   0  0
    7.0409   -8.1755   -2.2605 H   0  0
    7.6174   -7.5542   -3.8158 H   0  0
    7.7415   -9.2829   -3.4492 H   0  0
    5.1136   -6.8671   -5.8162 H   0  0
    6.3256   -6.1335   -4.7564 H   0  0
   -0.3548   -3.1050   -0.5393 H   0  0
    0.4587   -2.4326    0.8975 H   0  0
    5.7985   -8.8486   -4.9894 H   0  0
    5.1153   -6.9526   -2.8762 H   0  0
    3.9428   -7.5900   -3.8322 H   0  0
  1  3  2  0
  1  5  1  0
  2  4  1  0
  2  5  2  0
  3  6  1  0
  4  6  2  0
  5 22  1  0
  6 31  1  0
  7 16  1  0
  7 26  2  0
  7 32  1  0
  8 17  1  0
  8 27  2  0
  8 33  1  0
  9 18  1  0
  9 28  2  0
  9 34  1  0
 10 19  1  0
 10 29  2  0
 10 35  1  0
 11 12  1  0
 11 13  1  0
 11 32  1  0
 12 14  1  0
 12 33  1  0
 13 15  1  0
 13 34  1  0
 14 23  1  0
 14 30  1  0
 15 30  1  0
 15 31  1  0
 20 24  1  0
 21 24  1  0
 22 25  1  0
 23 35  1  0
 24 25  1  0
  1 36  1  0
  2 37  1  0
  3 38  1  0
  4 39  1  0
 11 40  1  0
 12 41  1  0
 13 42  1  0
 14 43  1  0
 15 44  1  0
 16 45  1  0
 16 46  1  0
 16 47  1  0
 17 48  1  0
 17 49  1  0
 17 50  1  0
 18 51  1  0
 18 52  1  0
 18 53  1  0
 19 54  1  0
 19 55  1  0
 19 56  1  0
 20 57  1  0
 20 58  1  0
 20 59  1  0
 21 60  1  0
 21 61  1  0
 21 62  1  0
 22 63  1  0
 22 64  1  0
 23 65  1  0
 23 66  1  0
 24 67  1  0
 25 68  1  0
 25 69  1  0
M  CHG  1  25   1
M  END
> <Name>
BR010151

$$$$
BR010152
  SciTegic05062102053D

 53 55  0  0  1  0            999 V2000
    5.3318  -11.7759   -6.4575 C   0  0
    5.4839  -11.3683   -5.1323 C   0  0
    5.6676  -10.9084   -7.4969 C   0  0
    5.9716  -10.0932   -4.8464 C   0  0
    6.1554   -9.6333   -7.2110 C   0  0
    4.5016   -3.9575   -6.0597 C   0  0
    4.7768   -4.0578   -3.6615 C   0  0
    3.4771   -3.0241   -5.9031 C   0  0
    3.7522   -3.1243   -3.5049 C   0  0
    6.3074   -9.2256   -5.8857 C   0  0
    5.1515   -4.4745   -4.9389 C   0  0
    3.1024   -2.6074   -4.6258 C   0  0
   -1.3307   -1.3576   -3.0003 C   0  0  1  0  0  0
   -1.8802   -2.6354   -3.6351 C   0  0  2  0  0  0
   -0.0193   -0.9356   -3.6623 C   0  0  2  0  0  0
   -0.7969   -3.7196   -3.6389 C   0  0  1  0  0  0
    0.9618   -2.1088   -3.7175 C   0  0  1  0  0  0
    6.8319   -7.8539   -5.5789 C   0  0
    6.2473   -5.4720   -5.1061 C   0  0
   -1.2454   -5.0053   -4.3232 C   0  0
    5.7587   -6.8324   -5.4638 N   0  3
    0.3630   -3.2471   -4.3354 O   0  0
   -2.2979   -0.3177   -3.1169 O   0  0
   -2.2824   -2.3414   -4.9748 O   0  0
    0.5517    0.1228   -2.8937 O   0  0
   -0.4036   -6.0618   -3.8973 O   0  0
    2.0984   -1.6910   -4.4725 O   0  0
    4.9533  -12.7693   -6.6800 H   0  0
    5.2235  -12.0441   -4.3228 H   0  0
    5.5504  -11.2258   -8.5288 H   0  0
    6.0866   -9.7841   -3.8108 H   0  0
    6.4144   -8.9641   -8.0273 H   0  0
    4.7870   -4.2765   -7.0585 H   0  0
    5.2775   -4.4553   -2.7824 H   0  0
    2.9747   -2.6248   -6.7803 H   0  0
    3.4653   -2.8036   -2.5074 H   0  0
   -1.1685   -1.5217   -1.9274 H   0  0
   -2.7743   -2.9643   -3.0931 H   0  0
   -0.2110   -0.5346   -4.6650 H   0  0
   -0.5100   -3.9620   -2.6075 H   0  0
    1.3138   -2.3707   -2.7117 H   0  0
    7.3800   -7.8425   -4.6307 H   0  0
    7.5139   -7.5067   -6.3627 H   0  0
    6.9457   -5.1769   -5.9011 H   0  0
    6.8330   -5.5879   -4.1839 H   0  0
   -1.1684   -4.8988   -5.4059 H   0  0
   -2.2759   -5.2345   -4.0498 H   0  0
    5.2440   -6.7803   -6.3528 H   0  0
    5.0741   -7.1384   -4.7598 H   0  0
   -3.0906   -0.6238   -2.6495 H   0  0
   -2.6235   -3.1692   -5.3443 H   0  0
    0.7015   -0.2336   -2.0050 H   0  0
   -0.7091   -6.8683   -4.3462 H   0  0
  1  2  1  0
  1  3  2  0
  2  4  2  0
  3  5  1  0
  4 10  1  0
  5 10  2  0
  6  8  2  0
  6 11  1  0
  7  9  1  0
  7 11  2  0
  8 12  1  0
  9 12  2  0
 10 18  1  0
 11 19  1  0
 12 27  1  0
 13 14  1  0
 13 15  1  0
 13 23  1  0
 14 16  1  0
 14 24  1  0
 15 17  1  0
 15 25  1  0
 16 20  1  0
 16 22  1  0
 17 22  1  0
 17 27  1  0
 18 21  1  0
 19 21  1  0
 20 26  1  0
  1 28  1  0
  2 29  1  0
  3 30  1  0
  4 31  1  0
  5 32  1  0
  6 33  1  0
  7 34  1  0
  8 35  1  0
  9 36  1  0
 13 37  1  0
 14 38  1  0
 15 39  1  0
 16 40  1  0
 17 41  1  0
 18 42  1  0
 18 43  1  0
 19 44  1  0
 19 45  1  0
 20 46  1  0
 20 47  1  0
 21 48  1  0
 21 49  1  0
 23 50  1  0
 24 51  1  0
 25 52  1  0
 26 53  1  0
M  CHG  1  21   1
M  END
> <Name>
BR010152

$$$$
BR010153
  SciTegic05062102053D

 52 53  0  0  1  0            999 V2000
    4.5016   -3.9575   -6.0597 C   0  0
    4.7768   -4.0578   -3.6615 C   0  0
    3.4771   -3.0241   -5.9031 C   0  0
    3.7522   -3.1243   -3.5049 C   0  0
    5.1515   -4.4745   -4.9389 C   0  0
    3.1024   -2.6074   -4.6258 C   0  0
   -1.3307   -1.3576   -3.0003 C   0  0  1  0  0  0
   -1.8802   -2.6354   -3.6351 C   0  0  2  0  0  0
   -0.0193   -0.9356   -3.6623 C   0  0  2  0  0  0
   -0.7969   -3.7196   -3.6389 C   0  0  1  0  0  0
    0.9618   -2.1088   -3.7175 C   0  0  1  0  0  0
    6.6769  -11.5754   -6.6307 C   0  0
    6.2473   -5.4720   -5.1061 C   0  0
   -1.2454   -5.0053   -4.3232 C   0  0
    7.2897  -10.2295   -6.2778 C   0  0
    6.2165   -9.1600   -6.0786 C   0  0
    6.8393   -7.8271   -5.6905 C   0  0
    5.7587   -6.8324   -5.4638 N   0  3
    0.3630   -3.2471   -4.3354 O   0  0
   -2.2979   -0.3177   -3.1169 O   0  0
   -2.2824   -2.3414   -4.9748 O   0  0
    0.5517    0.1228   -2.8937 O   0  0
   -0.4036   -6.0618   -3.8973 O   0  0
    2.0984   -1.6910   -4.4725 O   0  0
    4.7870   -4.2765   -7.0585 H   0  0
    5.2775   -4.4553   -2.7824 H   0  0
    2.9747   -2.6248   -6.7803 H   0  0
    3.4653   -2.8036   -2.5074 H   0  0
   -1.1685   -1.5217   -1.9274 H   0  0
   -2.7743   -2.9643   -3.0931 H   0  0
   -0.2110   -0.5346   -4.6650 H   0  0
   -0.5100   -3.9620   -2.6075 H   0  0
    1.3138   -2.3707   -2.7117 H   0  0
    6.0743  -11.5054   -7.5420 H   0  0
    6.0355  -11.9388   -5.8214 H   0  0
    7.4636  -12.3173   -6.8000 H   0  0
    6.9457   -5.1769   -5.9011 H   0  0
    6.8330   -5.5879   -4.1839 H   0  0
   -1.1684   -4.8988   -5.4059 H   0  0
   -2.2759   -5.2345   -4.0498 H   0  0
    7.8850  -10.3343   -5.3631 H   0  0
    7.9748   -9.9254   -7.0777 H   0  0
    5.6367   -9.0446   -7.0028 H   0  0
    5.5157   -9.4839   -5.2990 H   0  0
    7.4080   -7.8961   -4.7585 H   0  0
    7.4780   -7.4267   -6.4832 H   0  0
    5.1371   -7.1720   -4.7181 H   0  0
    5.1755   -6.7674   -6.3086 H   0  0
   -3.0906   -0.6238   -2.6495 H   0  0
   -2.6235   -3.1692   -5.3443 H   0  0
    0.7015   -0.2336   -2.0050 H   0  0
   -0.7091   -6.8683   -4.3462 H   0  0
  1  3  2  0
  1  5  1  0
  2  4  1  0
  2  5  2  0
  3  6  1  0
  4  6  2  0
  5 13  1  0
  6 24  1  0
  7  8  1  0
  7  9  1  0
  7 20  1  0
  8 10  1  0
  8 21  1  0
  9 11  1  0
  9 22  1  0
 10 14  1  0
 10 19  1  0
 11 19  1  0
 11 24  1  0
 12 15  1  0
 13 18  1  0
 14 23  1  0
 15 16  1  0
 16 17  1  0
 17 18  1  0
  1 25  1  0
  2 26  1  0
  3 27  1  0
  4 28  1  0
  7 29  1  0
  8 30  1  0
  9 31  1  0
 10 32  1  0
 11 33  1  0
 12 34  1  0
 12 35  1  0
 12 36  1  0
 13 37  1  0
 13 38  1  0
 14 39  1  0
 14 40  1  0
 15 41  1  0
 15 42  1  0
 16 43  1  0
 16 44  1  0
 17 45  1  0
 17 46  1  0
 18 47  1  0
 18 48  1  0
 20 49  1  0
 21 50  1  0
 22 51  1  0
 23 52  1  0
M  CHG  1  18   1
M  END
> <Name>
BR010153

$$$$
BR010154
  SciTegic05062102053D

 58 59  0  0  1  0            999 V2000
    4.5016   -3.9575   -6.0597 C   0  0
    4.7768   -4.0578   -3.6615 C   0  0
    3.4771   -3.0241   -5.9031 C   0  0
    3.7522   -3.1243   -3.5049 C   0  0
    5.1515   -4.4745   -4.9389 C   0  0
    3.1024   -2.6074   -4.6258 C   0  0
   -1.3307   -1.3576   -3.0003 C   0  0  1  0  0  0
   -1.8802   -2.6354   -3.6351 C   0  0  2  0  0  0
   -0.0193   -0.9356   -3.6623 C   0  0  2  0  0  0
   -0.7969   -3.7196   -3.6389 C   0  0  1  0  0  0
    0.9618   -2.1088   -3.7175 C   0  0  1  0  0  0
    7.1404  -13.9614   -7.3264 C   0  0
    6.2473   -5.4720   -5.1061 C   0  0
   -1.2454   -5.0053   -4.3232 C   0  0
    7.7504  -12.6248   -6.9354 C   0  0
    6.6743  -11.5643   -6.7037 C   0  0
    7.2901  -10.2305   -6.2780 C   0  0
    6.2164   -9.1599   -6.0786 C   0  0
    6.8393   -7.8271   -5.6905 C   0  0
    5.7587   -6.8324   -5.4638 N   0  3
    0.3630   -3.2471   -4.3354 O   0  0
   -2.2979   -0.3177   -3.1169 O   0  0
   -2.2824   -2.3414   -4.9748 O   0  0
    0.5517    0.1228   -2.8937 O   0  0
   -0.4036   -6.0618   -3.8973 O   0  0
    2.0984   -1.6910   -4.4725 O   0  0
    4.7870   -4.2765   -7.0585 H   0  0
    5.2775   -4.4553   -2.7824 H   0  0
    2.9747   -2.6248   -6.7803 H   0  0
    3.4653   -2.8036   -2.5074 H   0  0
   -1.1685   -1.5217   -1.9274 H   0  0
   -2.7743   -2.9643   -3.0931 H   0  0
   -0.2110   -0.5346   -4.6650 H   0  0
   -0.5100   -3.9620   -2.6075 H   0  0
    1.3138   -2.3707   -2.7117 H   0  0
    6.4516  -14.3192   -6.5544 H   0  0
    6.5808  -13.8635   -8.2619 H   0  0
    7.9168  -14.7192   -7.4725 H   0  0
    6.9457   -5.1769   -5.9011 H   0  0
    6.8330   -5.5879   -4.1839 H   0  0
   -1.1684   -4.8988   -5.4059 H   0  0
   -2.2759   -5.2345   -4.0498 H   0  0
    8.4331  -12.2956   -7.7273 H   0  0
    8.3477  -12.7545   -6.0253 H   0  0
    6.0931  -11.4239   -7.6233 H   0  0
    5.9773  -11.9107   -5.9308 H   0  0
    7.8512  -10.3661   -5.3454 H   0  0
    8.0050   -9.8961   -7.0397 H   0  0
    5.5151   -9.4836   -5.2994 H   0  0
    5.6372   -9.0443   -7.0032 H   0  0
    7.4079   -7.8961   -4.7585 H   0  0
    7.4780   -7.4267   -6.4833 H   0  0
    5.1371   -7.1720   -4.7181 H   0  0
    5.1755   -6.7674   -6.3086 H   0  0
   -3.0906   -0.6238   -2.6495 H   0  0
   -2.6235   -3.1692   -5.3443 H   0  0
    0.7015   -0.2336   -2.0050 H   0  0
   -0.7091   -6.8683   -4.3462 H   0  0
  1  3  2  0
  1  5  1  0
  2  4  1  0
  2  5  2  0
  3  6  1  0
  4  6  2  0
  5 13  1  0
  6 26  1  0
  7  8  1  0
  7  9  1  0
  7 22  1  0
  8 10  1  0
  8 23  1  0
  9 11  1  0
  9 24  1  0
 10 14  1  0
 10 21  1  0
 11 21  1  0
 11 26  1  0
 12 15  1  0
 13 20  1  0
 14 25  1  0
 15 16  1  0
 16 17  1  0
 17 18  1  0
 18 19  1  0
 19 20  1  0
  1 27  1  0
  2 28  1  0
  3 29  1  0
  4 30  1  0
  7 31  1  0
  8 32  1  0
  9 33  1  0
 10 34  1  0
 11 35  1  0
 12 36  1  0
 12 37  1  0
 12 38  1  0
 13 39  1  0
 13 40  1  0
 14 41  1  0
 14 42  1  0
 15 43  1  0
 15 44  1  0
 16 45  1  0
 16 46  1  0
 17 47  1  0
 17 48  1  0
 18 49  1  0
 18 50  1  0
 19 51  1  0
 19 52  1  0
 20 53  1  0
 20 54  1  0
 22 55  1  0
 23 56  1  0
 24 57  1  0
 25 58  1  0
M  CHG  1  20   1
M  END
> <Name>
BR010154

$$$$
BR010155
  SciTegic05062102053D

 49 50  0  0  1  0            999 V2000
    4.5016   -3.9575   -6.0597 C   0  0
    4.7768   -4.0578   -3.6615 C   0  0
    3.4771   -3.0241   -5.9031 C   0  0
    3.7522   -3.1243   -3.5049 C   0  0
    5.1515   -4.4745   -4.9389 C   0  0
    3.1024   -2.6074   -4.6258 C   0  0
   -1.3307   -1.3576   -3.0003 C   0  0  1  0  0  0
   -1.8802   -2.6354   -3.6351 C   0  0  2  0  0  0
   -0.0193   -0.9356   -3.6623 C   0  0  2  0  0  0
   -0.7969   -3.7196   -3.6389 C   0  0  1  0  0  0
    0.9618   -2.1088   -3.7175 C   0  0  1  0  0  0
    6.2874   -8.9498   -6.5544 C   0  0
    7.3266   -8.3259   -4.3396 C   0  0
    6.2473   -5.4720   -5.1061 C   0  0
   -1.2454   -5.0053   -4.3232 C   0  0
    6.8393   -7.8271   -5.6905 C   0  0
    5.7587   -6.8324   -5.4638 N   0  3
    0.3630   -3.2471   -4.3354 O   0  0
   -2.2979   -0.3177   -3.1169 O   0  0
   -2.2824   -2.3414   -4.9748 O   0  0
    0.5517    0.1228   -2.8937 O   0  0
   -0.4036   -6.0618   -3.8973 O   0  0
    2.0984   -1.6910   -4.4725 O   0  0
    4.7870   -4.2765   -7.0585 H   0  0
    5.2775   -4.4553   -2.7824 H   0  0
    2.9747   -2.6248   -6.7803 H   0  0
    3.4653   -2.8036   -2.5074 H   0  0
   -1.1685   -1.5217   -1.9274 H   0  0
   -2.7743   -2.9643   -3.0931 H   0  0
   -0.2110   -0.5346   -4.6650 H   0  0
   -0.5100   -3.9620   -2.6075 H   0  0
    1.3138   -2.3707   -2.7117 H   0  0
    5.4857   -9.4804   -6.0301 H   0  0
    5.8792   -8.5688   -7.4971 H   0  0
    7.0684   -9.6790   -6.7959 H   0  0
    6.5258   -8.8558   -3.8132 H   0  0
    7.6599   -7.4999   -3.7019 H   0  0
    8.1653   -9.0205   -4.4573 H   0  0
    6.9457   -5.1769   -5.9011 H   0  0
    6.8330   -5.5879   -4.1839 H   0  0
   -1.1684   -4.8988   -5.4059 H   0  0
   -2.2759   -5.2345   -4.0498 H   0  0
    7.6407   -7.2975   -6.2158 H   0  0
    5.1371   -7.1720   -4.7181 H   0  0
    5.1755   -6.7674   -6.3086 H   0  0
   -3.0906   -0.6238   -2.6495 H   0  0
   -2.6235   -3.1692   -5.3443 H   0  0
    0.7015   -0.2336   -2.0050 H   0  0
   -0.7091   -6.8683   -4.3462 H   0  0
  1  3  2  0
  1  5  1  0
  2  4  1  0
  2  5  2  0
  3  6  1  0
  4  6  2  0
  5 14  1  0
  6 23  1  0
  7  8  1  0
  7  9  1  0
  7 19  1  0
  8 10  1  0
  8 20  1  0
  9 11  1  0
  9 21  1  0
 10 15  1  0
 10 18  1  0
 11 18  1  0
 11 23  1  0
 12 16  1  0
 13 16  1  0
 14 17  1  0
 15 22  1  0
 16 17  1  0
  1 24  1  0
  2 25  1  0
  3 26  1  0
  4 27  1  0
  7 28  1  0
  8 29  1  0
  9 30  1  0
 10 31  1  0
 11 32  1  0
 12 33  1  0
 12 34  1  0
 12 35  1  0
 13 36  1  0
 13 37  1  0
 13 38  1  0
 14 39  1  0
 14 40  1  0
 15 41  1  0
 15 42  1  0
 16 43  1  0
 17 44  1  0
 17 45  1  0
 19 46  1  0
 20 47  1  0
 21 48  1  0
 22 49  1  0
M  CHG  1  17   1
M  END
> <Name>
BR010155

$$$$
BR010156
  SciTegic05062102053D

 50 52  0  0  1  0            999 V2000
    9.8157   -8.6819   -1.0754 C   0  0
   10.3222   -7.5088   -1.6347 C   0  0
    8.6836   -9.2842   -1.6245 C   0  0
    4.5007   -3.9594   -6.0588 C   0  0
    4.7748   -4.0594   -3.6605 C   0  0
    9.6967   -6.9379   -2.7431 C   0  0
    8.0581   -8.7133   -2.7328 C   0  0
    3.4771   -3.0248   -5.9029 C   0  0
    3.7512   -3.1247   -3.5045 C   0  0
    5.1495   -4.4768   -4.9376 C   0  0
    8.5647   -7.5401   -3.2922 C   0  0
    3.1024   -2.6074   -4.6258 C   0  0
    6.2169   -5.4511   -5.1000 C   0  0
    1.2630    1.8676   -5.2948 C   0  0  1  0  0  0
    2.5817    2.4437   -4.7780 C   0  0  2  0  0  0
    1.0585    0.4356   -4.8012 C   0  0  2  0  0  0
    3.7321    1.4887   -5.1152 C   0  0  1  0  0  0
    2.2970   -0.4174   -5.0849 C   0  0  1  0  0  0
    7.8900   -6.9253   -4.4864 C   0  0
    5.0744    1.9589   -4.5679 C   0  0
    6.8572   -5.9700   -4.0953 N   0  0
    3.4719    0.1954   -4.5554 O   0  0
    0.1850    2.6948   -4.8659 O   0  0
    2.4823    2.6084   -3.3617 O   0  0
   -0.0648   -0.1192   -5.4849 O   0  0
    6.1081    1.3030   -5.2802 O   0  0
    2.0984   -1.6910   -4.4725 O   0  0
   10.3036   -9.1270   -0.2132 H   0  0
   11.2043   -7.0403   -1.2080 H   0  0
    8.2896  -10.1981   -1.1900 H   0  0
    4.7843   -4.2770   -7.0590 H   0  0
    5.2744   -4.4563   -2.7804 H   0  0
   10.0983   -6.0236   -3.1721 H   0  0
    7.1766   -9.1894   -3.1539 H   0  0
    2.9753   -2.6257   -6.7801 H   0  0
    3.4635   -2.8036   -2.5072 H   0  0
    6.4824   -5.7548   -6.1387 H   0  0
    1.2602    1.8855   -6.3921 H   0  0
    2.7467    3.4378   -5.2091 H   0  0
    0.8146    0.4328   -3.7318 H   0  0
    3.8227    1.3859   -6.2043 H   0  0
    2.4160   -0.5861   -6.1627 H   0  0
    8.6302   -6.4237   -5.1207 H   0  0
    7.4366   -7.7076   -5.1056 H   0  0
    5.1540    1.7101   -3.5090 H   0  0
    5.1751    3.0368   -4.6998 H   0  0
    0.3477    3.5757   -5.2375 H   0  0
    3.3308    2.9733   -3.0700 H   0  0
    0.1509   -0.0969   -6.4295 H   0  0
    6.9515    1.6187   -4.9137 H   0  0
  1  2  2  0
  1  3  1  0
  2  6  1  0
  3  7  2  0
  4  8  2  0
  4 10  1  0
  5  9  1  0
  5 10  2  0
  6 11  2  0
  7 11  1  0
  8 12  1  0
  9 12  2  0
 10 13  1  0
 11 19  1  0
 12 27  1  0
 13 21  2  0
 14 15  1  0
 14 16  1  0
 14 23  1  0
 15 17  1  0
 15 24  1  0
 16 18  1  0
 16 25  1  0
 17 20  1  0
 17 22  1  0
 18 22  1  0
 18 27  1  0
 19 21  1  0
 20 26  1  0
  1 28  1  0
  2 29  1  0
  3 30  1  0
  4 31  1  0
  5 32  1  0
  6 33  1  0
  7 34  1  0
  8 35  1  0
  9 36  1  0
 13 37  1  0
 14 38  1  0
 15 39  1  0
 16 40  1  0
 17 41  1  0
 18 42  1  0
 19 43  1  0
 19 44  1  0
 20 45  1  0
 20 46  1  0
 23 47  1  0
 24 48  1  0
 25 49  1  0
 26 50  1  0
M  END
> <Name>
BR010156

$$$$
BR010157
  SciTegic05062102053D

 49 50  0  0  1  0            999 V2000
    4.5007   -3.9594   -6.0588 C   0  0
    4.7748   -4.0594   -3.6605 C   0  0
    3.4771   -3.0248   -5.9029 C   0  0
    3.7512   -3.1247   -3.5045 C   0  0
    5.1495   -4.4768   -4.9376 C   0  0
    3.1024   -2.6074   -4.6258 C   0  0
    6.2169   -5.4511   -5.1000 C   0  0
    1.2630    1.8676   -5.2948 C   0  0  1  0  0  0
    2.5817    2.4437   -4.7780 C   0  0  2  0  0  0
    1.0585    0.4356   -4.8012 C   0  0  2  0  0  0
    3.7321    1.4887   -5.1152 C   0  0  1  0  0  0
    2.2970   -0.4174   -5.0849 C   0  0  1  0  0  0
    9.8656   -7.0708   -1.1434 C   0  0
    5.0744    1.9589   -4.5679 C   0  0
    9.2335   -6.4563   -2.3827 C   0  0
    8.5448   -7.5177   -3.2435 C   0  0
    7.8900   -6.9253   -4.4864 C   0  0
    6.8572   -5.9700   -4.0953 N   0  0
    3.4719    0.1954   -4.5554 O   0  0
    0.1850    2.6948   -4.8659 O   0  0
    2.4823    2.6084   -3.3617 O   0  0
   -0.0648   -0.1192   -5.4849 O   0  0
    6.1081    1.3030   -5.2802 O   0  0
    2.0984   -1.6910   -4.4725 O   0  0
    4.7843   -4.2770   -7.0590 H   0  0
    5.2744   -4.4563   -2.7804 H   0  0
    2.9753   -2.6257   -6.7801 H   0  0
    3.4635   -2.8036   -2.5072 H   0  0
    6.4824   -5.7548   -6.1387 H   0  0
    1.2602    1.8855   -6.3921 H   0  0
    2.7467    3.4378   -5.2091 H   0  0
    0.8146    0.4328   -3.7318 H   0  0
    3.8227    1.3859   -6.2043 H   0  0
    2.4160   -0.5861   -6.1627 H   0  0
   10.5950   -7.8403   -1.4157 H   0  0
   10.3759   -6.3095   -0.5445 H   0  0
    9.0977   -7.5365   -0.5178 H   0  0
    5.1540    1.7101   -3.5090 H   0  0
    5.1751    3.0368   -4.6998 H   0  0
    8.5114   -5.6928   -2.0720 H   0  0
   10.0099   -5.9497   -2.9679 H   0  0
    9.2868   -8.2609   -3.5595 H   0  0
    7.7930   -8.0463   -2.6445 H   0  0
    8.6310   -6.4273   -5.1201 H   0  0
    7.4258   -7.7232   -5.0753 H   0  0
    0.3477    3.5757   -5.2375 H   0  0
    3.3308    2.9733   -3.0700 H   0  0
    0.1509   -0.0969   -6.4295 H   0  0
    6.9515    1.6187   -4.9137 H   0  0
  1  3  2  0
  1  5  1  0
  2  4  1  0
  2  5  2  0
  3  6  1  0
  4  6  2  0
  5  7  1  0
  6 24  1  0
  7 18  2  0
  8  9  1  0
  8 10  1  0
  8 20  1  0
  9 11  1  0
  9 21  1  0
 10 12  1  0
 10 22  1  0
 11 14  1  0
 11 19  1  0
 12 19  1  0
 12 24  1  0
 13 15  1  0
 14 23  1  0
 15 16  1  0
 16 17  1  0
 17 18  1  0
  1 25  1  0
  2 26  1  0
  3 27  1  0
  4 28  1  0
  7 29  1  0
  8 30  1  0
  9 31  1  0
 10 32  1  0
 11 33  1  0
 12 34  1  0
 13 35  1  0
 13 36  1  0
 13 37  1  0
 14 38  1  0
 14 39  1  0
 15 40  1  0
 15 41  1  0
 16 42  1  0
 16 43  1  0
 17 44  1  0
 17 45  1  0
 20 46  1  0
 21 47  1  0
 22 48  1  0
 23 49  1  0
M  END
> <Name>
BR010157

$$$$
BR010158
  SciTegic05062102053D

 55 56  0  0  1  0            999 V2000
    4.5007   -3.9594   -6.0588 C   0  0
    4.7748   -4.0594   -3.6605 C   0  0
    3.4771   -3.0248   -5.9029 C   0  0
    3.7512   -3.1247   -3.5045 C   0  0
    5.1495   -4.4768   -4.9376 C   0  0
    3.1024   -2.6074   -4.6258 C   0  0
    6.2169   -5.4511   -5.1000 C   0  0
    1.2630    1.8676   -5.2948 C   0  0  1  0  0  0
    2.5817    2.4437   -4.7780 C   0  0  2  0  0  0
    1.0585    0.4356   -4.8012 C   0  0  2  0  0  0
    3.7321    1.4887   -5.1152 C   0  0  1  0  0  0
    2.2970   -0.4174   -5.0849 C   0  0  1  0  0  0
    8.3916   -9.6677    1.2939 C   0  0
    5.0744    1.9589   -4.5679 C   0  0
    7.6373   -9.2756    0.0334 C   0  0
    8.5582   -8.6001   -0.9839 C   0  0
    7.7846   -8.1750   -2.2336 C   0  0
    8.6416   -7.4161   -3.2533 C   0  0
    7.8900   -6.9253   -4.4864 C   0  0
    6.8572   -5.9700   -4.0953 N   0  0
    3.4719    0.1954   -4.5554 O   0  0
    0.1850    2.6948   -4.8659 O   0  0
    2.4823    2.6084   -3.3617 O   0  0
   -0.0648   -0.1192   -5.4849 O   0  0
    6.1081    1.3030   -5.2802 O   0  0
    2.0984   -1.6910   -4.4725 O   0  0
    4.7843   -4.2770   -7.0590 H   0  0
    5.2744   -4.4563   -2.7804 H   0  0
    2.9753   -2.6257   -6.7801 H   0  0
    3.4635   -2.8036   -2.5072 H   0  0
    6.4824   -5.7548   -6.1387 H   0  0
    1.2602    1.8855   -6.3921 H   0  0
    2.7467    3.4378   -5.2091 H   0  0
    0.8146    0.4328   -3.7318 H   0  0
    3.8227    1.3859   -6.2043 H   0  0
    2.4160   -0.5861   -6.1627 H   0  0
    9.2192  -10.3454    1.0610 H   0  0
    8.8068   -8.7790    1.7791 H   0  0
    7.7292  -10.1666    2.0083 H   0  0
    5.1540    1.7101   -3.5090 H   0  0
    5.1751    3.0368   -4.6998 H   0  0
    6.8177   -8.5987    0.3015 H   0  0
    7.1871  -10.1715   -0.4098 H   0  0
    9.3600   -9.2952   -1.2567 H   0  0
    9.0294   -7.7222   -0.5260 H   0  0
    7.3319   -9.0551   -2.7055 H   0  0
    6.9551   -7.5213   -1.9358 H   0  0
    9.4683   -8.0605   -3.5767 H   0  0
    9.0946   -6.5551   -2.7456 H   0  0
    7.4419   -7.7540   -5.0425 H   0  0
    8.5890   -6.4227   -5.1629 H   0  0
    0.3477    3.5757   -5.2375 H   0  0
    3.3308    2.9733   -3.0700 H   0  0
    0.1509   -0.0969   -6.4295 H   0  0
    6.9515    1.6187   -4.9137 H   0  0
  1  3  2  0
  1  5  1  0
  2  4  1  0
  2  5  2  0
  3  6  1  0
  4  6  2  0
  5  7  1  0
  6 26  1  0
  7 20  2  0
  8  9  1  0
  8 10  1  0
  8 22  1  0
  9 11  1  0
  9 23  1  0
 10 12  1  0
 10 24  1  0
 11 14  1  0
 11 21  1  0
 12 21  1  0
 12 26  1  0
 13 15  1  0
 14 25  1  0
 15 16  1  0
 16 17  1  0
 17 18  1  0
 18 19  1  0
 19 20  1  0
  1 27  1  0
  2 28  1  0
  3 29  1  0
  4 30  1  0
  7 31  1  0
  8 32  1  0
  9 33  1  0
 10 34  1  0
 11 35  1  0
 12 36  1  0
 13 37  1  0
 13 38  1  0
 13 39  1  0
 14 40  1  0
 14 41  1  0
 15 42  1  0
 15 43  1  0
 16 44  1  0
 16 45  1  0
 17 46  1  0
 17 47  1  0
 18 48  1  0
 18 49  1  0
 19 50  1  0
 19 51  1  0
 22 52  1  0
 23 53  1  0
 24 54  1  0
 25 55  1  0
M  END
> <Name>
BR010158

$$$$
BR010159
  SciTegic05062102053D

 46 47  0  0  1  0            999 V2000
    4.5007   -3.9594   -6.0588 C   0  0
    4.7748   -4.0594   -3.6605 C   0  0
    3.4771   -3.0248   -5.9029 C   0  0
    3.7512   -3.1247   -3.5045 C   0  0
    5.1495   -4.4768   -4.9376 C   0  0
    3.1024   -2.6074   -4.6258 C   0  0
    6.2169   -5.4511   -5.1000 C   0  0
    1.2630    1.8676   -5.2948 C   0  0  1  0  0  0
    2.5817    2.4437   -4.7780 C   0  0  2  0  0  0
    1.0585    0.4356   -4.8012 C   0  0  2  0  0  0
    3.7321    1.4887   -5.1152 C   0  0  1  0  0  0
    2.2970   -0.4174   -5.0849 C   0  0  1  0  0  0
    9.0165   -6.8806   -3.4647 C   0  0
    7.2701   -8.3114   -4.5819 C   0  0
    5.0744    1.9589   -4.5679 C   0  0
    7.8900   -6.9253   -4.4864 C   0  0
    6.8572   -5.9700   -4.0953 N   0  0
    3.4719    0.1954   -4.5554 O   0  0
    0.1850    2.6948   -4.8659 O   0  0
    2.4823    2.6084   -3.3617 O   0  0
   -0.0648   -0.1192   -5.4849 O   0  0
    6.1081    1.3030   -5.2802 O   0  0
    2.0984   -1.6910   -4.4725 O   0  0
    4.7843   -4.2770   -7.0590 H   0  0
    5.2744   -4.4563   -2.7804 H   0  0
    2.9753   -2.6257   -6.7801 H   0  0
    3.4635   -2.8036   -2.5072 H   0  0
    6.4824   -5.7548   -6.1387 H   0  0
    1.2602    1.8855   -6.3921 H   0  0
    2.7467    3.4378   -5.2091 H   0  0
    0.8146    0.4328   -3.7318 H   0  0
    3.8227    1.3859   -6.2043 H   0  0
    2.4160   -0.5861   -6.1627 H   0  0
    8.6557   -7.1685   -2.4720 H   0  0
    9.8216   -7.5677   -3.7467 H   0  0
    9.4509   -5.8772   -3.3933 H   0  0
    6.8725   -8.6296   -3.6129 H   0  0
    8.0159   -9.0470   -4.9020 H   0  0
    6.4528   -8.3337   -5.3114 H   0  0
    5.1540    1.7101   -3.5090 H   0  0
    5.1751    3.0368   -4.6998 H   0  0
    8.2786   -6.6334   -5.4678 H   0  0
    0.3477    3.5757   -5.2375 H   0  0
    3.3308    2.9733   -3.0700 H   0  0
    0.1509   -0.0969   -6.4295 H   0  0
    6.9515    1.6187   -4.9137 H   0  0
  1  3  2  0
  1  5  1  0
  2  4  1  0
  2  5  2  0
  3  6  1  0
  4  6  2  0
  5  7  1  0
  6 23  1  0
  7 17  2  0
  8  9  1  0
  8 10  1  0
  8 19  1  0
  9 11  1  0
  9 20  1  0
 10 12  1  0
 10 21  1  0
 11 15  1  0
 11 18  1  0
 12 18  1  0
 12 23  1  0
 13 16  1  0
 14 16  1  0
 15 22  1  0
 16 17  1  0
  1 24  1  0
  2 25  1  0
  3 26  1  0
  4 27  1  0
  7 28  1  0
  8 29  1  0
  9 30  1  0
 10 31  1  0
 11 32  1  0
 12 33  1  0
 13 34  1  0
 13 35  1  0
 13 36  1  0
 14 37  1  0
 14 38  1  0
 14 39  1  0
 15 40  1  0
 15 41  1  0
 16 42  1  0
 19 43  1  0
 20 44  1  0
 21 45  1  0
 22 46  1  0
M  END
> <Name>
BR010159

$$$$
BR010160
  SciTegic05062102053D

 40 41  0  0  1  0            999 V2000
    4.9766   -3.9490   -4.2512 C   0  0
    3.0856   -5.1553   -5.1490 C   0  0
    4.1976   -2.7956   -4.1600 C   0  0
    2.3065   -4.0018   -5.0578 C   0  0
    4.4206   -5.1289   -4.7458 C   0  0
    2.8626   -2.8220   -4.5633 C   0  0
    0.7233    0.6893   -1.9268 C   0  0  1  0  0  0
    0.1626   -0.3970   -1.0083 C   0  0  2  0  0  0
    1.0679    0.1207   -3.3030 C   0  0  2  0  0  0
    1.1199   -1.5934   -0.9760 C   0  0  1  0  0  0
    1.9375   -1.1315   -3.1696 C   0  0  1  0  0  0
    5.2532   -6.3623   -4.8428 C   0  0
    0.5950   -2.7518   -0.1363 C   0  0
    5.2072   -7.2045   -3.6156 N   0  3
    1.3267   -2.0883   -2.3049 O   0  0
   -0.2303    1.7405   -2.0532 O   0  0
   -1.1121   -0.8043   -1.5106 O   0  0
    1.7818    1.1166   -4.0347 O   0  0
    1.6836   -3.5897    0.2091 O   0  0
    2.0984   -1.6910   -4.4725 O   0  0
    6.0158   -3.9194   -3.9348 H   0  0
    2.6440   -6.0701   -5.5357 H   0  0
    4.6364   -1.8795   -3.7736 H   0  0
    1.2673   -4.0289   -5.3732 H   0  0
    1.6205    1.1273   -1.4713 H   0  0
   -0.0004    0.0130   -0.0050 H   0  0
    0.1516   -0.0940   -3.8664 H   0  0
    2.0891   -1.2829   -0.5645 H   0  0
    2.9371   -0.8744   -2.7968 H   0  0
    4.9274   -7.0067   -5.6707 H   0  0
    6.3120   -6.1234   -5.0127 H   0  0
   -0.1340   -3.3273   -0.7079 H   0  0
    0.1302   -2.3729    0.7745 H   0  0
    4.6077   -8.0215   -3.7603 H   0  0
    4.8359   -6.6704   -2.8251 H   0  0
    6.1443   -7.5341   -3.3683 H   0  0
   -0.3811    2.0859   -1.1596 H   0  0
   -1.4359   -1.4895   -0.9074 H   0  0
    2.5803    1.3137   -3.5221 H   0  0
    1.3240   -4.3187    0.7426 H   0  0
  1  3  2  0
  1  5  1  0
  2  4  1  0
  2  5  2  0
  3  6  1  0
  4  6  2  0
  5 12  1  0
  6 20  1  0
  7  8  1  0
  7  9  1  0
  7 16  1  0
  8 10  1  0
  8 17  1  0
  9 11  1  0
  9 18  1  0
 10 13  1  0
 10 15  1  0
 11 15  1  0
 11 20  1  0
 12 14  1  0
 13 19  1  0
  1 21  1  0
  2 22  1  0
  3 23  1  0
  4 24  1  0
  7 25  1  0
  8 26  1  0
  9 27  1  0
 10 28  1  0
 11 29  1  0
 12 30  1  0
 12 31  1  0
 13 32  1  0
 13 33  1  0
 14 34  1  0
 14 35  1  0
 14 36  1  0
 16 37  1  0
 17 38  1  0
 18 39  1  0
 19 40  1  0
M  CHG  1  14   1
M  END
> <Name>
BR010160

$$$$
BR010161
  SciTegic05062102053D

 37 39  0  0  1  0            999 V2000
    2.7015   -0.9072   -4.8368 C   0  0
    4.4460    0.5987   -4.1115 C   0  0
    1.9488   -0.5781   -3.7095 C   0  0
    3.6932    0.9278   -2.9842 C   0  0
    3.9502   -0.3188   -5.0377 C   0  0
    2.4446    0.3394   -2.7833 C   0  0
    4.7351   -0.6616   -6.2131 C   0  0
   -1.1918    0.9443   -1.0018 C   0  0
   -1.0613   -0.5516   -0.7460 C   0  0  2  0  0  0
   -0.1246    0.5392    1.0346 C   0  0  1  0  0  0
   -1.0716   -0.6191    0.7630 C   0  0  1  0  0  0
    1.3046    0.1414    0.6460 C   0  0  2  0  0  0
    1.3801   -0.4094   -0.7929 C   0  0  1  0  0  0
    6.7889   -0.2390   -7.3513 C   0  0
    4.3758   -1.4631   -7.0857 O   0  0
   -0.5521    1.5817    0.1266 O   0  0
    0.1849   -1.0840   -1.2169 O   0  0
   -2.3629   -0.3698    1.2982 O   0  0
    1.7879   -0.8348    1.5669 O   0  0
    1.7067    0.6621   -1.6777 O   0  0
    5.9248    0.0137   -6.2382 O   0  0
    2.3047   -1.6232   -5.5519 H   0  0
    5.4177    1.0630   -4.2590 H   0  0
    0.9769   -1.0400   -3.5585 H   0  0
    4.0848    1.6430   -2.2660 H   0  0
   -0.7252    1.2833   -1.9298 H   0  0
   -2.2398    1.2616   -0.9960 H   0  0
   -1.8742   -1.1101   -1.2189 H   0  0
   -0.1885    0.9063    2.0636 H   0  0
   -0.7038   -1.5812    1.1598 H   0  0
    1.9645    1.0280    0.7311 H   0  0
    2.1936   -1.1404   -0.8669 H   0  0
    7.6982    0.3586   -7.2506 H   0  0
    6.2727    0.0172   -8.2799 H   0  0
    7.0519   -1.2993   -7.3636 H   0  0
   -2.2850   -0.4310    2.2647 H   0  0
    2.6886   -1.0559    1.2851 H   0  0
  1  3  1  0
  1  5  2  0
  2  4  2  0
  2  5  1  0
  3  6  2  0
  4  6  1  0
  5  7  1  0
  6 20  1  0
  7 15  2  0
  7 21  1  0
  8  9  1  0
  8 16  1  0
  9 11  1  0
  9 17  1  0
 10 11  1  0
 10 12  1  0
 10 16  1  0
 11 18  1  0
 12 13  1  0
 12 19  1  0
 13 17  1  0
 13 20  1  0
 14 21  1  0
  1 22  1  0
  2 23  1  0
  3 24  1  0
  4 25  1  0
  8 26  1  0
  8 27  1  0
  9 28  1  0
 10 29  1  0
 11 30  1  0
 12 31  1  0
 13 32  1  0
 14 33  1  0
 14 34  1  0
 14 35  1  0
 18 36  1  0
 19 37  1  0
M  END
> <Name>
BR010161

$$$$
BR010162
  SciTegic05062102053D

 56 58  0  0  1  0            999 V2000
    3.0864   -5.1546   -5.1512 C   0  0
    4.9770   -3.9487   -4.2520 C   0  0
    4.3905   -7.5480   -0.2190 C   0  0
    2.6355   -8.0882   -1.7892 C   0  0
    2.3070   -4.0015   -5.0590 C   0  0
    4.1976   -2.7955   -4.1598 C   0  0
    3.5642   -6.5951    0.3767 C   0  0
    1.8092   -7.1353   -1.1934 C   0  0
    4.4214   -5.1282   -4.7477 C   0  0
    3.9262   -8.2945   -1.3020 C   0  0
    2.8626   -2.8220   -4.5633 C   0  0
    2.2736   -6.3888   -0.1105 C   0  0
    5.2342   -6.3303   -4.8439 C   0  0
    0.7233    0.6893   -1.9268 C   0  0  1  0  0  0
    0.1626   -0.3970   -1.0083 C   0  0  2  0  0  0
    1.0679    0.1207   -3.3030 C   0  0  2  0  0  0
    1.1199   -1.5934   -0.9760 C   0  0  1  0  0  0
    1.9375   -1.1315   -3.1696 C   0  0  1  0  0  0
    4.8097   -9.3128   -1.9397 C   0  0
    7.4117   -7.2227   -4.4512 C   0  0
    0.5950   -2.7518   -0.1363 C   0  0
    4.8267   -7.4189   -5.2705 O   0  0
   -0.1318   -5.6046    0.3628 O   0  0
    1.6981   -5.0070    2.0053 O   0  0
    1.3267   -2.0883   -2.3049 O   0  0
   -0.2303    1.7405   -2.0532 O   0  0
   -1.1121   -0.8043   -1.5106 O   0  0
    1.7818    1.1166   -4.0347 O   0  0
    2.0984   -1.6910   -4.4725 O   0  0
    6.5113   -6.1107   -4.4047 O   0  0
    1.5405   -3.8057   -0.1784 O   0  0
    1.2270   -5.1847    0.6447 S   0  0
    2.6427   -6.0678   -5.5394 H   0  0
    6.0163   -3.9177   -3.9351 H   0  0
    5.3946   -7.7016    0.1671 H   0  0
    2.2654   -8.6649   -2.6328 H   0  0
    1.2677   -4.0284   -5.3748 H   0  0
    4.6358   -1.8797   -3.7725 H   0  0
    3.9360   -6.0186    1.2196 H   0  0
    0.8056   -6.9824   -1.5813 H   0  0
    1.6205    1.1273   -1.4713 H   0  0
   -0.0004    0.0130   -0.0050 H   0  0
    0.1516   -0.0940   -3.8664 H   0  0
    2.0891   -1.2829   -0.5645 H   0  0
    2.9371   -0.8744   -2.7968 H   0  0
    4.6781  -10.2888   -1.4566 H   0  0
    4.5860   -9.4209   -3.0090 H   0  0
    5.8669   -9.0267   -1.8638 H   0  0
    8.3908   -6.9157   -4.0755 H   0  0
    7.4999   -7.5785   -5.4808 H   0  0
    7.0182   -8.0253   -3.8229 H   0  0
   -0.3548   -3.1050   -0.5393 H   0  0
    0.4587   -2.4326    0.8975 H   0  0
   -0.3811    2.0859   -1.1596 H   0  0
   -1.4359   -1.4895   -0.9074 H   0  0
    2.5803    1.3137   -3.5221 H   0  0
  1  5  2  0
  1  9  1  0
  2  6  1  0
  2  9  2  0
  3  7  1  0
  3 10  2  0
  4  8  2  0
  4 10  1  0
  5 11  1  0
  6 11  2  0
  7 12  2  0
  8 12  1  0
  9 13  1  0
 10 19  1  0
 11 29  1  0
 12 32  1  0
 13 22  2  0
 13 30  1  0
 14 15  1  0
 14 16  1  0
 14 26  1  0
 15 17  1  0
 15 27  1  0
 16 18  1  0
 16 28  1  0
 17 21  1  0
 17 25  1  0
 18 25  1  0
 18 29  1  0
 20 30  1  0
 21 31  1  0
 23 32  2  0
 24 32  2  0
 31 32  1  0
  1 33  1  0
  2 34  1  0
  3 35  1  0
  4 36  1  0
  5 37  1  0
  6 38  1  0
  7 39  1  0
  8 40  1  0
 14 41  1  0
 15 42  1  0
 16 43  1  0
 17 44  1  0
 18 45  1  0
 19 46  1  0
 19 47  1  0
 19 48  1  0
 20 49  1  0
 20 50  1  0
 20 51  1  0
 21 52  1  0
 21 53  1  0
 26 54  1  0
 27 55  1  0
 28 56  1  0
M  END
> <Name>
BR010162

$$$$
BR010163
  SciTegic05062102053D

 72 75  0  0  1  0            999 V2000
    3.0864   -5.1546   -5.1512 C   0  0
    4.9770   -3.9487   -4.2520 C   0  0
   -3.1578    5.4087   -2.2136 C   0  0
   -1.0035    6.3057   -2.8392 C   0  0
    4.3905   -7.5480   -0.2190 C   0  0
    2.6355   -8.0882   -1.7892 C   0  0
    2.3070   -4.0015   -5.0590 C   0  0
    4.1976   -2.7955   -4.1598 C   0  0
   -2.5292    4.3193   -1.6107 C   0  0
   -0.3748    5.2162   -2.2363 C   0  0
    3.5642   -6.5951    0.3767 C   0  0
    1.8092   -7.1353   -1.1934 C   0  0
    4.4214   -5.1282   -4.7477 C   0  0
   -2.3950    6.4019   -2.8279 C   0  0
    3.9262   -8.2945   -1.3020 C   0  0
    2.8626   -2.8220   -4.5633 C   0  0
   -1.1377    4.2230   -1.6220 C   0  0
    2.2736   -6.3888   -0.1105 C   0  0
    5.2342   -6.3303   -4.8439 C   0  0
    0.7233    0.6893   -1.9268 C   0  0  1  0  0  0
    0.1626   -0.3970   -1.0083 C   0  0  2  0  0  0
    1.0679    0.1207   -3.3030 C   0  0  2  0  0  0
    1.1199   -1.5934   -0.9760 C   0  0  1  0  0  0
    1.9375   -1.1315   -3.1696 C   0  0  1  0  0  0
   -3.0668    7.5666   -3.4732 C   0  0
    4.8097   -9.3128   -1.9397 C   0  0
    7.4117   -7.2227   -4.4512 C   0  0
    0.5950   -2.7518   -0.1363 C   0  0
    4.8267   -7.4189   -5.2705 O   0  0
    0.9890    3.2996   -0.5044 O   0  0
   -1.2566    2.3297    0.1438 O   0  0
   -0.1318   -5.6046    0.3628 O   0  0
    1.6981   -5.0070    2.0053 O   0  0
    1.3267   -2.0883   -2.3049 O   0  0
   -1.1121   -0.8043   -1.5106 O   0  0
    1.7818    1.1166   -4.0347 O   0  0
    2.0984   -1.6910   -4.4725 O   0  0
    6.5113   -6.1107   -4.4047 O   0  0
   -0.2303    1.7405   -2.0532 O   0  0
    1.5405   -3.8057   -0.1784 O   0  0
   -0.3419    2.8455   -0.8572 S   0  0
    1.2270   -5.1847    0.6447 S   0  0
    2.6427   -6.0678   -5.5394 H   0  0
    6.0163   -3.9177   -3.9351 H   0  0
   -4.2424    5.4751   -2.2002 H   0  0
   -0.4010    7.0745   -3.3157 H   0  0
    5.3946   -7.7016    0.1671 H   0  0
    2.2654   -8.6649   -2.6328 H   0  0
    1.2677   -4.0284   -5.3748 H   0  0
    4.6358   -1.8797   -3.7725 H   0  0
   -3.1330    3.5507   -1.1354 H   0  0
    0.7099    5.1509   -2.2512 H   0  0
    3.9360   -6.0186    1.2196 H   0  0
    0.8056   -6.9824   -1.5813 H   0  0
    1.6205    1.1273   -1.4713 H   0  0
   -0.0004    0.0130   -0.0050 H   0  0
    0.1516   -0.0940   -3.8664 H   0  0
    2.0891   -1.2829   -0.5645 H   0  0
    2.9371   -0.8744   -2.7968 H   0  0
   -3.1964    8.3814   -2.7504 H   0  0
   -2.4818    7.9441   -4.3219 H   0  0
   -4.0539    7.2897   -3.8661 H   0  0
    4.6781  -10.2888   -1.4566 H   0  0
    4.5860   -9.4209   -3.0090 H   0  0
    5.8669   -9.0267   -1.8638 H   0  0
    8.3908   -6.9157   -4.0755 H   0  0
    7.4999   -7.5785   -5.4808 H   0  0
    7.0182   -8.0253   -3.8229 H   0  0
   -0.3548   -3.1050   -0.5393 H   0  0
    0.4587   -2.4326    0.8975 H   0  0
   -1.4359   -1.4895   -0.9074 H   0  0
    2.5803    1.3137   -3.5221 H   0  0
  1  7  2  0
  1 13  1  0
  2  8  1  0
  2 13  2  0
  3  9  1  0
  3 14  2  0
  4 10  2  0
  4 14  1  0
  5 11  1  0
  5 15  2  0
  6 12  2  0
  6 15  1  0
  7 16  1  0
  8 16  2  0
  9 17  2  0
 10 17  1  0
 11 18  2  0
 12 18  1  0
 13 19  1  0
 14 25  1  0
 15 26  1  0
 16 37  1  0
 17 41  1  0
 18 42  1  0
 19 29  2  0
 19 38  1  0
 20 21  1  0
 20 22  1  0
 20 39  1  0
 21 23  1  0
 21 35  1  0
 22 24  1  0
 22 36  1  0
 23 28  1  0
 23 34  1  0
 24 34  1  0
 24 37  1  0
 27 38  1  0
 28 40  1  0
 30 41  2  0
 31 41  2  0
 32 42  2  0
 33 42  2  0
 39 41  1  0
 40 42  1  0
  1 43  1  0
  2 44  1  0
  3 45  1  0
  4 46  1  0
  5 47  1  0
  6 48  1  0
  7 49  1  0
  8 50  1  0
  9 51  1  0
 10 52  1  0
 11 53  1  0
 12 54  1  0
 20 55  1  0
 21 56  1  0
 22 57  1  0
 23 58  1  0
 24 59  1  0
 25 60  1  0
 25 61  1  0
 25 62  1  0
 26 63  1  0
 26 64  1  0
 26 65  1  0
 27 66  1  0
 27 67  1  0
 27 68  1  0
 28 69  1  0
 28 70  1  0
 35 71  1  0
 36 72  1  0
M  END
> <Name>
BR010163

$$$$
BR010164
  SciTegic05062102053D

 71 73  0  0  1  0            999 V2000
    3.0864   -5.1546   -5.1512 C   0  0
    4.9770   -3.9487   -4.2520 C   0  0
    4.3905   -7.5480   -0.2190 C   0  0
    2.6355   -8.0882   -1.7892 C   0  0
    2.3070   -4.0015   -5.0590 C   0  0
    4.1976   -2.7955   -4.1598 C   0  0
    3.5642   -6.5951    0.3767 C   0  0
    1.8092   -7.1353   -1.1934 C   0  0
    4.4214   -5.1282   -4.7477 C   0  0
    3.9262   -8.2945   -1.3020 C   0  0
    2.8626   -2.8220   -4.5633 C   0  0
    2.2736   -6.3888   -0.1105 C   0  0
    5.2342   -6.3303   -4.8439 C   0  0
   -0.1514    2.7277   -1.1123 C   0  0
   -2.1676   -0.5982   -0.6712 C   0  0
    1.0128    1.9772   -4.7638 C   0  0
    0.7233    0.6893   -1.9268 C   0  0  1  0  0  0
    0.1626   -0.3970   -1.0083 C   0  0  2  0  0  0
    1.0679    0.1207   -3.3030 C   0  0  2  0  0  0
    1.1199   -1.5934   -0.9760 C   0  0  1  0  0  0
    1.9375   -1.1315   -3.1696 C   0  0  1  0  0  0
    4.8097   -9.3128   -1.9397 C   0  0
   -1.2083    3.7587   -1.3695 C   0  0
   -3.4304   -1.0693   -1.3265 C   0  0
    1.8918    2.9615   -5.4741 C   0  0
    7.4117   -7.2227   -4.4512 C   0  0
    0.5950   -2.7518   -0.1363 C   0  0
    4.8267   -7.4189   -5.2705 O   0  0
    0.6512    2.7844   -0.1904 O   0  0
   -2.1187   -0.1064    0.4481 O   0  0
   -0.2082    1.9681   -4.8419 O   0  0
   -0.1318   -5.6046    0.3628 O   0  0
    1.6981   -5.0070    2.0053 O   0  0
    1.3267   -2.0883   -2.3049 O   0  0
    2.0984   -1.6910   -4.4725 O   0  0
    6.5113   -6.1107   -4.4047 O   0  0
   -0.2303    1.7405   -2.0532 O   0  0
   -1.1121   -0.8043   -1.5106 O   0  0
    1.7818    1.1166   -4.0347 O   0  0
    1.5405   -3.8057   -0.1784 O   0  0
    1.2270   -5.1847    0.6447 S   0  0
    2.6427   -6.0678   -5.5394 H   0  0
    6.0163   -3.9177   -3.9351 H   0  0
    5.3946   -7.7016    0.1671 H   0  0
    2.2654   -8.6649   -2.6328 H   0  0
    1.2677   -4.0284   -5.3748 H   0  0
    4.6358   -1.8797   -3.7725 H   0  0
    3.9360   -6.0186    1.2196 H   0  0
    0.8056   -6.9824   -1.5813 H   0  0
    1.6205    1.1273   -1.4713 H   0  0
   -0.0004    0.0130   -0.0050 H   0  0
    0.1516   -0.0940   -3.8664 H   0  0
    2.0891   -1.2829   -0.5645 H   0  0
    2.9371   -0.8744   -2.7968 H   0  0
    4.6781  -10.2888   -1.4566 H   0  0
    4.5860   -9.4209   -3.0090 H   0  0
    5.8669   -9.0267   -1.8638 H   0  0
   -0.8169    4.5334   -2.0335 H   0  0
   -1.5403    4.1936   -0.4233 H   0  0
   -2.0667    3.2849   -1.8544 H   0  0
   -3.8817   -0.2512   -1.8932 H   0  0
   -4.1244   -1.4424   -0.5691 H   0  0
   -3.1981   -1.8852   -2.0171 H   0  0
    2.0530    3.8384   -4.8422 H   0  0
    1.4342    3.2496   -6.4239 H   0  0
    2.8609    2.4984   -5.6816 H   0  0
    8.3908   -6.9157   -4.0755 H   0  0
    7.4999   -7.5785   -5.4808 H   0  0
    7.0182   -8.0253   -3.8229 H   0  0
   -0.3548   -3.1050   -0.5393 H   0  0
    0.4587   -2.4326    0.8975 H   0  0
  1  5  2  0
  1  9  1  0
  2  6  1  0
  2  9  2  0
  3  7  1  0
  3 10  2  0
  4  8  2  0
  4 10  1  0
  5 11  1  0
  6 11  2  0
  7 12  2  0
  8 12  1  0
  9 13  1  0
 10 22  1  0
 11 35  1  0
 12 41  1  0
 13 28  2  0
 13 36  1  0
 14 23  1  0
 14 29  2  0
 14 37  1  0
 15 24  1  0
 15 30  2  0
 15 38  1  0
 16 25  1  0
 16 31  2  0
 16 39  1  0
 17 18  1  0
 17 19  1  0
 17 37  1  0
 18 20  1  0
 18 38  1  0
 19 21  1  0
 19 39  1  0
 20 27  1  0
 20 34  1  0
 21 34  1  0
 21 35  1  0
 26 36  1  0
 27 40  1  0
 32 41  2  0
 33 41  2  0
 40 41  1  0
  1 42  1  0
  2 43  1  0
  3 44  1  0
  4 45  1  0
  5 46  1  0
  6 47  1  0
  7 48  1  0
  8 49  1  0
 17 50  1  0
 18 51  1  0
 19 52  1  0
 20 53  1  0
 21 54  1  0
 22 55  1  0
 22 56  1  0
 22 57  1  0
 23 58  1  0
 23 59  1  0
 23 60  1  0
 24 61  1  0
 24 62  1  0
 24 63  1  0
 25 64  1  0
 25 65  1  0
 25 66  1  0
 26 67  1  0
 26 68  1  0
 26 69  1  0
 27 70  1  0
 27 71  1  0
M  END
> <Name>
BR010164

$$$$
BR010165
  SciTegic05062102053D

 54 55  0  0  1  0            999 V2000
    4.9766   -3.9495   -4.2530 C   0  0
    3.0855   -5.1545   -5.1521 C   0  0
    4.1977   -2.7961   -4.1601 C   0  0
    2.3065   -4.0012   -5.0593 C   0  0
    4.4206   -5.1286   -4.7490 C   0  0
    2.8626   -2.8220   -4.5633 C   0  0
    5.2325   -6.3313   -4.8457 C   0  0
   -0.1514    2.7277   -1.1123 C   0  0
   -2.1676   -0.5982   -0.6712 C   0  0
    1.0128    1.9772   -4.7638 C   0  0
    0.7233    0.6893   -1.9268 C   0  0  1  0  0  0
    0.1626   -0.3970   -1.0083 C   0  0  2  0  0  0
    1.0679    0.1207   -3.3030 C   0  0  2  0  0  0
    1.1199   -1.5934   -0.9760 C   0  0  1  0  0  0
    1.9375   -1.1315   -3.1696 C   0  0  1  0  0  0
   -1.2083    3.7587   -1.3695 C   0  0
   -3.4304   -1.0693   -1.3265 C   0  0
    1.8918    2.9615   -5.4741 C   0  0
    5.1649   -8.7151   -4.7740 C   0  0
    0.5950   -2.7518   -0.1363 C   0  0
    6.4561   -6.3367   -5.0357 O   0  0
    0.6512    2.7844   -0.1904 O   0  0
   -2.1187   -0.1064    0.4481 O   0  0
   -0.2082    1.9681   -4.8419 O   0  0
    1.3267   -2.0883   -2.3049 O   0  0
    2.0984   -1.6910   -4.4725 O   0  0
    4.4764   -7.4621   -4.6992 O   0  0
   -0.2303    1.7405   -2.0532 O   0  0
   -1.1121   -0.8043   -1.5106 O   0  0
    1.7818    1.1166   -4.0347 O   0  0
    2.1896   -4.0257    0.4728 I   0  0
    6.0158   -3.9175   -3.9355 H   0  0
    2.6427   -6.0684   -5.5398 H   0  0
    4.6366   -1.8807   -3.7730 H   0  0
    1.2671   -4.0273   -5.3751 H   0  0
    1.6205    1.1273   -1.4713 H   0  0
   -0.0004    0.0130   -0.0050 H   0  0
    0.1516   -0.0940   -3.8664 H   0  0
    2.0891   -1.2829   -0.5645 H   0  0
    2.9371   -0.8744   -2.7968 H   0  0
   -0.8169    4.5334   -2.0335 H   0  0
   -1.5403    4.1936   -0.4233 H   0  0
   -2.0667    3.2849   -1.8544 H   0  0
   -3.8817   -0.2512   -1.8932 H   0  0
   -4.1244   -1.4424   -0.5691 H   0  0
   -3.1981   -1.8852   -2.0171 H   0  0
    2.0530    3.8384   -4.8422 H   0  0
    1.4342    3.2496   -6.4239 H   0  0
    2.8609    2.4984   -5.6816 H   0  0
    4.4514   -9.5322   -4.6421 H   0  0
    5.9316   -8.7576   -3.9963 H   0  0
    5.6383   -8.8025   -5.7548 H   0  0
   -0.1341   -3.3199   -0.7207 H   0  0
    0.0768   -2.3560    0.7416 H   0  0
  1  3  2  0
  1  5  1  0
  2  4  1  0
  2  5  2  0
  3  6  1  0
  4  6  2  0
  5  7  1  0
  6 26  1  0
  7 21  2  0
  7 27  1  0
  8 16  1  0
  8 22  2  0
  8 28  1  0
  9 17  1  0
  9 23  2  0
  9 29  1  0
 10 18  1  0
 10 24  2  0
 10 30  1  0
 11 12  1  0
 11 13  1  0
 11 28  1  0
 12 14  1  0
 12 29  1  0
 13 15  1  0
 13 30  1  0
 14 20  1  0
 14 25  1  0
 15 25  1  0
 15 26  1  0
 19 27  1  0
 20 31  1  0
  1 32  1  0
  2 33  1  0
  3 34  1  0
  4 35  1  0
 11 36  1  0
 12 37  1  0
 13 38  1  0
 14 39  1  0
 15 40  1  0
 16 41  1  0
 16 42  1  0
 16 43  1  0
 17 44  1  0
 17 45  1  0
 17 46  1  0
 18 47  1  0
 18 48  1  0
 18 49  1  0
 19 50  1  0
 19 51  1  0
 19 52  1  0
 20 53  1  0
 20 54  1  0
M  END
> <Name>
BR010165

$$$$
BR010166
  SciTegic05062102053D

 39 40  0  0  1  0            999 V2000
    4.9766   -3.9495   -4.2530 C   0  0
    3.0855   -5.1545   -5.1521 C   0  0
    4.1977   -2.7961   -4.1601 C   0  0
    2.3065   -4.0012   -5.0593 C   0  0
    4.4206   -5.1286   -4.7490 C   0  0
    2.8626   -2.8220   -4.5633 C   0  0
    5.2325   -6.3313   -4.8457 C   0  0
    0.7233    0.6893   -1.9268 C   0  0  1  0  0  0
    0.1626   -0.3970   -1.0083 C   0  0  2  0  0  0
    1.0679    0.1207   -3.3030 C   0  0  2  0  0  0
    1.1199   -1.5934   -0.9760 C   0  0  1  0  0  0
    1.9375   -1.1315   -3.1696 C   0  0  1  0  0  0
    5.1649   -8.7151   -4.7740 C   0  0
    0.5950   -2.7518   -0.1363 C   0  0
    6.4561   -6.3367   -5.0357 O   0  0
    1.3267   -2.0883   -2.3049 O   0  0
   -0.2303    1.7405   -2.0532 O   0  0
   -1.1121   -0.8043   -1.5106 O   0  0
    1.7818    1.1166   -4.0347 O   0  0
    2.0984   -1.6910   -4.4725 O   0  0
    4.4764   -7.4621   -4.6992 O   0  0
    2.1896   -4.0257    0.4728 I   0  0
    6.0158   -3.9175   -3.9355 H   0  0
    2.6427   -6.0684   -5.5398 H   0  0
    4.6366   -1.8807   -3.7730 H   0  0
    1.2671   -4.0273   -5.3751 H   0  0
    1.6205    1.1273   -1.4713 H   0  0
   -0.0004    0.0130   -0.0050 H   0  0
    0.1516   -0.0940   -3.8664 H   0  0
    2.0891   -1.2829   -0.5645 H   0  0
    2.9371   -0.8744   -2.7968 H   0  0
    4.4514   -9.5322   -4.6421 H   0  0
    5.9316   -8.7576   -3.9963 H   0  0
    5.6383   -8.8025   -5.7548 H   0  0
   -0.1341   -3.3199   -0.7207 H   0  0
    0.0768   -2.3560    0.7416 H   0  0
   -0.3811    2.0859   -1.1596 H   0  0
   -1.4359   -1.4895   -0.9074 H   0  0
    2.5803    1.3137   -3.5221 H   0  0
  1  3  2  0
  1  5  1  0
  2  4  1  0
  2  5  2  0
  3  6  1  0
  4  6  2  0
  5  7  1  0
  6 20  1  0
  7 15  2  0
  7 21  1  0
  8  9  1  0
  8 10  1  0
  8 17  1  0
  9 11  1  0
  9 18  1  0
 10 12  1  0
 10 19  1  0
 11 14  1  0
 11 16  1  0
 12 16  1  0
 12 20  1  0
 13 21  1  0
 14 22  1  0
  1 23  1  0
  2 24  1  0
  3 25  1  0
  4 26  1  0
  8 27  1  0
  9 28  1  0
 10 29  1  0
 11 30  1  0
 12 31  1  0
 13 32  1  0
 13 33  1  0
 13 34  1  0
 14 35  1  0
 14 36  1  0
 17 37  1  0
 18 38  1  0
 19 39  1  0
M  END
> <Name>
BR010166

$$$$
BR010167
  SciTegic05062102053D

 56 57  0  0  1  0            999 V2000
    4.7984   -4.1531   -4.1872 C   0  0
    5.3157   -2.6067   -5.9700 C   0  0
    3.6057   -3.4724   -3.9429 C   0  0
    4.1230   -1.9260   -5.7256 C   0  0
    5.6534   -3.7202   -5.2008 C   0  0
    3.2680   -2.3589   -4.7121 C   0  0
    6.8969   -4.4299   -5.4558 C   0  0
   -0.1514    2.7277   -1.1123 C   0  0
   -2.1676   -0.5982   -0.6712 C   0  0
    1.6033    1.0954   -5.3880 C   0  0
    0.7233    0.6893   -1.9268 C   0  0  1  0  0  0
    0.1626   -0.3970   -1.0083 C   0  0  2  0  0  0
    1.0679    0.1207   -3.3030 C   0  0  2  0  0  0
    1.1199   -1.5934   -0.9760 C   0  0  1  0  0  0
    1.9375   -1.1315   -3.1696 C   0  0  1  0  0  0
   -1.2083    3.7587   -1.3695 C   0  0
   -3.4304   -1.0693   -1.3265 C   0  0
    2.4078    2.1903   -6.0204 C   0  0
    8.8454   -4.4736   -6.8320 C   0  0
    0.5950   -2.7518   -0.1363 C   0  0
    1.1878   -5.5125    1.5722 N   0  5
    1.7174   -3.6076    0.2352 N   0  0
    1.4388   -4.6016    0.9332 N   0  3
    7.2771   -5.4253   -4.8253 O   0  0
    0.6512    2.7844   -0.1904 O   0  0
   -2.1187   -0.1064    0.4481 O   0  0
    0.8996    0.3135   -6.0130 O   0  0
    1.3267   -2.0883   -2.3049 O   0  0
    2.0984   -1.6910   -4.4725 O   0  0
    7.5989   -3.8616   -6.4836 O   0  0
   -0.2303    1.7405   -2.0532 O   0  0
   -1.1121   -0.8043   -1.5106 O   0  0
    1.7818    1.1166   -4.0347 O   0  0
    5.0509   -5.0197   -3.5816 H   0  0
    5.9751   -2.2615   -6.7622 H   0  0
    2.9439   -3.8144   -3.1518 H   0  0
    3.8654   -1.0590   -6.3279 H   0  0
    1.6205    1.1273   -1.4713 H   0  0
   -0.0004    0.0130   -0.0050 H   0  0
    0.1516   -0.0940   -3.8664 H   0  0
    2.0891   -1.2829   -0.5645 H   0  0
    2.9371   -0.8744   -2.7968 H   0  0
   -0.8169    4.5334   -2.0335 H   0  0
   -1.5403    4.1936   -0.4233 H   0  0
   -2.0667    3.2849   -1.8544 H   0  0
   -3.8817   -0.2512   -1.8932 H   0  0
   -4.1244   -1.4424   -0.5691 H   0  0
   -3.1981   -1.8852   -2.0171 H   0  0
    1.8094    3.1026   -6.0813 H   0  0
    2.7399    1.8799   -7.0143 H   0  0
    3.2904    2.3927   -5.4066 H   0  0
    9.3014   -3.9271   -7.6612 H   0  0
    8.6740   -5.5144   -7.1180 H   0  0
    9.5117   -4.4406   -5.9667 H   0  0
   -0.1340   -3.3256   -0.7108 H   0  0
    0.1088   -2.3683    0.7622 H   0  0
  1  3  2  0
  1  5  1  0
  2  4  1  0
  2  5  2  0
  3  6  1  0
  4  6  2  0
  5  7  1  0
  6 29  1  0
  7 24  2  0
  7 30  1  0
  8 16  1  0
  8 25  2  0
  8 31  1  0
  9 17  1  0
  9 26  2  0
  9 32  1  0
 10 18  1  0
 10 27  2  0
 10 33  1  0
 11 12  1  0
 11 13  1  0
 11 31  1  0
 12 14  1  0
 12 32  1  0
 13 15  1  0
 13 33  1  0
 14 20  1  0
 14 28  1  0
 15 28  1  0
 15 29  1  0
 19 30  1  0
 20 22  1  0
 21 23  2  0
 22 23  2  0
  1 34  1  0
  2 35  1  0
  3 36  1  0
  4 37  1  0
 11 38  1  0
 12 39  1  0
 13 40  1  0
 14 41  1  0
 15 42  1  0
 16 43  1  0
 16 44  1  0
 16 45  1  0
 17 46  1  0
 17 47  1  0
 17 48  1  0
 18 49  1  0
 18 50  1  0
 18 51  1  0
 19 52  1  0
 19 53  1  0
 19 54  1  0
 20 55  1  0
 20 56  1  0
M  CHG  2  21  -1  23   1
M  END
> <Name>
BR010167

$$$$
BR010168
  SciTegic05062102053D

 56 57  0  0  1  0            999 V2000
    3.0864   -5.1546   -5.1512 C   0  0
    4.9770   -3.9487   -4.2520 C   0  0
    2.3070   -4.0015   -5.0590 C   0  0
    4.1976   -2.7955   -4.1598 C   0  0
    4.4214   -5.1282   -4.7477 C   0  0
    2.8626   -2.8220   -4.5633 C   0  0
    5.2342   -6.3303   -4.8439 C   0  0
    2.0856   -4.7018   -0.5346 C   0  0
   -0.1514    2.7277   -1.1123 C   0  0
    1.0128    1.9772   -4.7638 C   0  0
    0.7233    0.6893   -1.9268 C   0  0  1  0  0  0
    0.1626   -0.3970   -1.0083 C   0  0  2  0  0  0
    1.0679    0.1207   -3.3030 C   0  0  2  0  0  0
    1.1199   -1.5934   -0.9760 C   0  0  1  0  0  0
    1.9375   -1.1315   -3.1696 C   0  0  1  0  0  0
    3.2338   -5.4643    0.0385 C   0  0
   -1.2083    3.7587   -1.3695 C   0  0
    1.8918    2.9615   -5.4741 C   0  0
    7.0726   -7.4986   -3.8704 C   0  0
    0.5950   -2.7518   -0.1363 C   0  0
    1.6704   -3.6130    0.2286 N   0  0
    5.0740   -7.2179   -5.6922 O   0  0
    1.5941   -5.0589   -1.5989 O   0  0
    0.6512    2.7844   -0.1904 O   0  0
   -0.2082    1.9681   -4.8419 O   0  0
    1.3267   -2.0883   -2.3049 O   0  0
   -1.1121   -0.8043   -1.5106 O   0  0
    2.0984   -1.6910   -4.4725 O   0  0
    6.2036   -6.3608   -3.8788 O   0  0
   -0.2303    1.7405   -2.0532 O   0  0
    1.7818    1.1166   -4.0347 O   0  0
    2.6427   -6.0678   -5.5394 H   0  0
    6.0163   -3.9177   -3.9351 H   0  0
    1.2677   -4.0284   -5.3748 H   0  0
    4.6358   -1.8797   -3.7725 H   0  0
    1.6205    1.1273   -1.4713 H   0  0
   -0.0004    0.0130   -0.0050 H   0  0
    0.1516   -0.0940   -3.8664 H   0  0
    2.0891   -1.2829   -0.5645 H   0  0
    2.9371   -0.8744   -2.7968 H   0  0
    2.9069   -6.2800    0.7033 H   0  0
    3.8459   -5.9497   -0.7385 H   0  0
    3.9429   -4.8698    0.6364 H   0  0
   -0.8169    4.5334   -2.0335 H   0  0
   -1.5403    4.1936   -0.4233 H   0  0
   -2.0667    3.2849   -1.8544 H   0  0
    2.0530    3.8384   -4.8422 H   0  0
    1.4342    3.2496   -6.4239 H   0  0
    2.8609    2.4984   -5.6816 H   0  0
    7.7955   -7.3998   -3.0569 H   0  0
    7.5935   -7.5674   -4.8287 H   0  0
    6.4757   -8.4007   -3.7168 H   0  0
   -0.1261   -3.3097   -0.7209 H   0  0
    0.1329   -2.3593    0.7606 H   0  0
    2.1674   -3.4199    1.1040 H   0  0
   -1.4359   -1.4895   -0.9074 H   0  0
  1  3  2  0
  1  5  1  0
  2  4  1  0
  2  5  2  0
  3  6  1  0
  4  6  2  0
  5  7  1  0
  6 28  1  0
  7 22  2  0
  7 29  1  0
  8 16  1  0
  8 21  1  0
  8 23  2  0
  9 17  1  0
  9 24  2  0
  9 30  1  0
 10 18  1  0
 10 25  2  0
 10 31  1  0
 11 12  1  0
 11 13  1  0
 11 30  1  0
 12 14  1  0
 12 27  1  0
 13 15  1  0
 13 31  1  0
 14 20  1  0
 14 26  1  0
 15 26  1  0
 15 28  1  0
 19 29  1  0
 20 21  1  0
  1 32  1  0
  2 33  1  0
  3 34  1  0
  4 35  1  0
 11 36  1  0
 12 37  1  0
 13 38  1  0
 14 39  1  0
 15 40  1  0
 16 41  1  0
 16 42  1  0
 16 43  1  0
 17 44  1  0
 17 45  1  0
 17 46  1  0
 18 47  1  0
 18 48  1  0
 18 49  1  0
 19 50  1  0
 19 51  1  0
 19 52  1  0
 20 53  1  0
 20 54  1  0
 21 55  1  0
 27 56  1  0
M  END
> <Name>
BR010168

$$$$
BR010169
  SciTegic05062102053D

 46 47  0  0  1  0            999 V2000
    3.0864   -5.1546   -5.1512 C   0  0
    4.9770   -3.9487   -4.2520 C   0  0
    2.3070   -4.0015   -5.0590 C   0  0
    4.1976   -2.7955   -4.1598 C   0  0
    4.4214   -5.1282   -4.7477 C   0  0
    2.8626   -2.8220   -4.5633 C   0  0
    5.2342   -6.3303   -4.8439 C   0  0
    2.0856   -4.7018   -0.5346 C   0  0
    0.7233    0.6893   -1.9268 C   0  0  1  0  0  0
    0.1626   -0.3970   -1.0083 C   0  0  2  0  0  0
    1.0679    0.1207   -3.3030 C   0  0  2  0  0  0
    1.1199   -1.5934   -0.9760 C   0  0  1  0  0  0
    1.9375   -1.1315   -3.1696 C   0  0  1  0  0  0
    3.2338   -5.4643    0.0385 C   0  0
    7.0726   -7.4986   -3.8704 C   0  0
    0.5950   -2.7518   -0.1363 C   0  0
    1.6704   -3.6130    0.2286 N   0  0
    5.0740   -7.2179   -5.6922 O   0  0
    1.5941   -5.0589   -1.5989 O   0  0
    1.3267   -2.0883   -2.3049 O   0  0
   -0.2303    1.7405   -2.0532 O   0  0
   -1.1121   -0.8043   -1.5106 O   0  0
    1.7818    1.1166   -4.0347 O   0  0
    2.0984   -1.6910   -4.4725 O   0  0
    6.2036   -6.3608   -3.8788 O   0  0
    2.6427   -6.0678   -5.5394 H   0  0
    6.0163   -3.9177   -3.9351 H   0  0
    1.2677   -4.0284   -5.3748 H   0  0
    4.6358   -1.8797   -3.7725 H   0  0
    1.6205    1.1273   -1.4713 H   0  0
   -0.0004    0.0130   -0.0050 H   0  0
    0.1516   -0.0940   -3.8664 H   0  0
    2.0891   -1.2829   -0.5645 H   0  0
    2.9371   -0.8744   -2.7968 H   0  0
    2.9069   -6.2800    0.7033 H   0  0
    3.8459   -5.9497   -0.7385 H   0  0
    3.9429   -4.8698    0.6364 H   0  0
    7.7955   -7.3998   -3.0569 H   0  0
    7.5935   -7.5674   -4.8287 H   0  0
    6.4757   -8.4007   -3.7168 H   0  0
   -0.1261   -3.3097   -0.7209 H   0  0
    0.1329   -2.3593    0.7606 H   0  0
    2.1674   -3.4199    1.1040 H   0  0
   -0.3811    2.0859   -1.1596 H   0  0
   -1.4359   -1.4895   -0.9074 H   0  0
    2.5803    1.3137   -3.5221 H   0  0
  1  3  2  0
  1  5  1  0
  2  4  1  0
  2  5  2  0
  3  6  1  0
  4  6  2  0
  5  7  1  0
  6 24  1  0
  7 18  2  0
  7 25  1  0
  8 14  1  0
  8 17  1  0
  8 19  2  0
  9 10  1  0
  9 11  1  0
  9 21  1  0
 10 12  1  0
 10 22  1  0
 11 13  1  0
 11 23  1  0
 12 16  1  0
 12 20  1  0
 13 20  1  0
 13 24  1  0
 15 25  1  0
 16 17  1  0
  1 26  1  0
  2 27  1  0
  3 28  1  0
  4 29  1  0
  9 30  1  0
 10 31  1  0
 11 32  1  0
 12 33  1  0
 13 34  1  0
 14 35  1  0
 14 36  1  0
 14 37  1  0
 15 38  1  0
 15 39  1  0
 15 40  1  0
 16 41  1  0
 16 42  1  0
 17 43  1  0
 21 44  1  0
 22 45  1  0
 23 46  1  0
M  END
> <Name>
BR010169

$$$$
BR010170
  SciTegic05062102053D

 41 42  0  0  1  0            999 V2000
    4.9766   -3.9495   -4.2530 C   0  0
    3.0855   -5.1545   -5.1521 C   0  0
    4.1977   -2.7961   -4.1601 C   0  0
    2.3065   -4.0012   -5.0593 C   0  0
    4.4206   -5.1286   -4.7490 C   0  0
    2.8626   -2.8220   -4.5633 C   0  0
    5.2325   -6.3313   -4.8457 C   0  0
    0.7233    0.6893   -1.9268 C   0  0  1  0  0  0
    0.1626   -0.3970   -1.0083 C   0  0  2  0  0  0
    1.0679    0.1207   -3.3030 C   0  0  2  0  0  0
    1.1199   -1.5934   -0.9760 C   0  0  1  0  0  0
    1.9375   -1.1315   -3.1696 C   0  0  1  0  0  0
    5.2093   -8.6272   -5.4942 C   0  0
    0.5950   -2.7518   -0.1363 C   0  0
    1.1878   -5.5125    1.5722 N   0  5
    1.7174   -3.6076    0.2352 N   0  0
    1.4388   -4.6016    0.9332 N   0  3
    6.4229   -6.4012   -4.5121 O   0  0
    1.3267   -2.0883   -2.3049 O   0  0
   -0.2303    1.7405   -2.0532 O   0  0
   -1.1121   -0.8043   -1.5106 O   0  0
    1.7818    1.1166   -4.0347 O   0  0
    2.0984   -1.6910   -4.4725 O   0  0
    4.5171   -7.3821   -5.3516 O   0  0
    6.0158   -3.9175   -3.9355 H   0  0
    2.6427   -6.0684   -5.5398 H   0  0
    4.6366   -1.8807   -3.7730 H   0  0
    1.2671   -4.0273   -5.3751 H   0  0
    1.6205    1.1273   -1.4713 H   0  0
   -0.0004    0.0130   -0.0050 H   0  0
    0.1516   -0.0940   -3.8664 H   0  0
    2.0891   -1.2829   -0.5645 H   0  0
    2.9371   -0.8744   -2.7968 H   0  0
    4.5298   -9.3776   -5.9056 H   0  0
    5.5811   -8.9521   -4.5192 H   0  0
    6.0520   -8.4893   -6.1759 H   0  0
   -0.1340   -3.3256   -0.7108 H   0  0
    0.1088   -2.3683    0.7622 H   0  0
   -0.3811    2.0859   -1.1596 H   0  0
   -1.4359   -1.4895   -0.9074 H   0  0
    2.5803    1.3137   -3.5221 H   0  0
  1  3  2  0
  1  5  1  0
  2  4  1  0
  2  5  2  0
  3  6  1  0
  4  6  2  0
  5  7  1  0
  6 23  1  0
  7 18  2  0
  7 24  1  0
  8  9  1  0
  8 10  1  0
  8 20  1  0
  9 11  1  0
  9 21  1  0
 10 12  1  0
 10 22  1  0
 11 14  1  0
 11 19  1  0
 12 19  1  0
 12 23  1  0
 13 24  1  0
 14 16  1  0
 15 17  2  0
 16 17  2  0
  1 25  1  0
  2 26  1  0
  3 27  1  0
  4 28  1  0
  8 29  1  0
  9 30  1  0
 10 31  1  0
 11 32  1  0
 12 33  1  0
 13 34  1  0
 13 35  1  0
 13 36  1  0
 14 37  1  0
 14 38  1  0
 20 39  1  0
 21 40  1  0
 22 41  1  0
M  CHG  2  15  -1  17   1
M  END
> <Name>
BR010170

$$$$
BR010171
  SciTegic05062102053D

 42 43  0  0  1  0            999 V2000
    4.9766   -3.9495   -4.2530 C   0  0
    3.0855   -5.1545   -5.1521 C   0  0
    4.1977   -2.7961   -4.1601 C   0  0
    2.3065   -4.0012   -5.0593 C   0  0
    4.4206   -5.1286   -4.7490 C   0  0
    2.8626   -2.8220   -4.5633 C   0  0
    5.2325   -6.3313   -4.8457 C   0  0
    0.7233    0.6893   -1.9268 C   0  0  1  0  0  0
    0.1626   -0.3970   -1.0083 C   0  0  2  0  0  0
    1.0679    0.1207   -3.3030 C   0  0  2  0  0  0
    1.1199   -1.5934   -0.9760 C   0  0  1  0  0  0
    1.9375   -1.1315   -3.1696 C   0  0  1  0  0  0
    5.2093   -8.6272   -5.4942 C   0  0
    0.5950   -2.7518   -0.1363 C   0  0
    1.7228   -3.6455    0.2014 N   0  3
    6.4229   -6.4012   -4.5121 O   0  0
    1.3267   -2.0883   -2.3049 O   0  0
   -0.2303    1.7405   -2.0532 O   0  0
   -1.1121   -0.8043   -1.5106 O   0  0
    1.7818    1.1166   -4.0347 O   0  0
    2.0984   -1.6910   -4.4725 O   0  0
    4.5171   -7.3821   -5.3516 O   0  0
    6.0158   -3.9175   -3.9355 H   0  0
    2.6427   -6.0684   -5.5398 H   0  0
    4.6366   -1.8807   -3.7730 H   0  0
    1.2671   -4.0273   -5.3751 H   0  0
    1.6205    1.1273   -1.4713 H   0  0
   -0.0004    0.0130   -0.0050 H   0  0
    0.1516   -0.0940   -3.8664 H   0  0
    2.0891   -1.2829   -0.5645 H   0  0
    2.9371   -0.8744   -2.7968 H   0  0
    4.5298   -9.3776   -5.9056 H   0  0
    5.5811   -8.9521   -4.5192 H   0  0
    6.0520   -8.4893   -6.1759 H   0  0
   -0.1358   -3.3401   -0.6903 H   0  0
    0.1658   -2.3964    0.7998 H   0  0
    1.6233   -4.0287    1.1496 H   0  0
    2.6193   -3.1447    0.1604 H   0  0
    1.7783   -4.4378   -0.4506 H   0  0
   -0.3811    2.0859   -1.1596 H   0  0
   -1.4359   -1.4895   -0.9074 H   0  0
    2.5803    1.3137   -3.5221 H   0  0
  1  3  2  0
  1  5  1  0
  2  4  1  0
  2  5  2  0
  3  6  1  0
  4  6  2  0
  5  7  1  0
  6 21  1  0
  7 16  2  0
  7 22  1  0
  8  9  1  0
  8 10  1  0
  8 18  1  0
  9 11  1  0
  9 19  1  0
 10 12  1  0
 10 20  1  0
 11 14  1  0
 11 17  1  0
 12 17  1  0
 12 21  1  0
 13 22  1  0
 14 15  1  0
  1 23  1  0
  2 24  1  0
  3 25  1  0
  4 26  1  0
  8 27  1  0
  9 28  1  0
 10 29  1  0
 11 30  1  0
 12 31  1  0
 13 32  1  0
 13 33  1  0
 13 34  1  0
 14 35  1  0
 14 36  1  0
 15 37  1  0
 15 38  1  0
 15 39  1  0
 18 40  1  0
 19 41  1  0
 20 42  1  0
M  CHG  1  15   1
M  END
> <Name>
BR010171

$$$$
BR010172
  SciTegic05062102053D

 53 55  0  0  1  0            999 V2000
    4.4509   -7.9137   -0.7401 C   0  0
    3.2286   -8.1940   -1.3508 C   0  0
    4.7088   -6.6330   -0.2510 C   0  0
    2.2642   -7.1937   -1.4725 C   0  0
    3.7443   -5.6327   -0.3727 C   0  0
    4.9766   -3.9495   -4.2530 C   0  0
    3.0855   -5.1545   -5.1521 C   0  0
    4.1977   -2.7961   -4.1601 C   0  0
    2.3065   -4.0012   -5.0593 C   0  0
    2.5220   -5.9130   -0.9835 C   0  0
    4.4206   -5.1286   -4.7490 C   0  0
    2.8626   -2.8220   -4.5633 C   0  0
    1.4947   -4.8476   -1.1132 C   0  0
    5.2325   -6.3313   -4.8457 C   0  0
    0.7233    0.6893   -1.9268 C   0  0  1  0  0  0
    0.1626   -0.3970   -1.0083 C   0  0  2  0  0  0
    1.0679    0.1207   -3.3030 C   0  0  2  0  0  0
    1.1199   -1.5934   -0.9760 C   0  0  1  0  0  0
    1.9375   -1.1315   -3.1696 C   0  0  1  0  0  0
    5.1649   -8.7151   -4.7740 C   0  0
    0.5950   -2.7518   -0.1363 C   0  0
    1.5281   -3.8290   -0.1583 N   0  0
    0.6686   -4.9179   -2.0194 O   0  0
    6.4561   -6.3367   -5.0357 O   0  0
    1.3267   -2.0883   -2.3049 O   0  0
   -0.2303    1.7405   -2.0532 O   0  0
   -1.1121   -0.8043   -1.5106 O   0  0
    1.7818    1.1166   -4.0347 O   0  0
    2.0984   -1.6910   -4.4725 O   0  0
    4.4764   -7.4621   -4.6992 O   0  0
    5.2018   -8.6925   -0.6453 H   0  0
    3.0281   -9.1911   -1.7317 H   0  0
    5.6603   -6.4148    0.2248 H   0  0
    1.3151   -7.4230   -1.9502 H   0  0
    3.9562   -4.6384    0.0120 H   0  0
    6.0158   -3.9175   -3.9355 H   0  0
    2.6427   -6.0684   -5.5398 H   0  0
    4.6366   -1.8807   -3.7730 H   0  0
    1.2671   -4.0273   -5.3751 H   0  0
    1.6205    1.1273   -1.4713 H   0  0
   -0.0004    0.0130   -0.0050 H   0  0
    0.1516   -0.0940   -3.8664 H   0  0
    2.0891   -1.2829   -0.5645 H   0  0
    2.9371   -0.8744   -2.7968 H   0  0
    4.4514   -9.5322   -4.6421 H   0  0
    5.9316   -8.7576   -3.9963 H   0  0
    5.6383   -8.8025   -5.7548 H   0  0
   -0.3469   -3.0874   -0.5523 H   0  0
    0.4606   -2.4178    0.8847 H   0  0
    2.2151   -3.8865    0.5989 H   0  0
   -0.3811    2.0859   -1.1596 H   0  0
   -1.4359   -1.4895   -0.9074 H   0  0
    2.5803    1.3137   -3.5221 H   0  0
  1  2  2  0
  1  3  1  0
  2  4  1  0
  3  5  2  0
  4 10  2  0
  5 10  1  0
  6  8  2  0
  6 11  1  0
  7  9  1  0
  7 11  2  0
  8 12  1  0
  9 12  2  0
 10 13  1  0
 11 14  1  0
 12 29  1  0
 13 22  1  0
 13 23  2  0
 14 24  2  0
 14 30  1  0
 15 16  1  0
 15 17  1  0
 15 26  1  0
 16 18  1  0
 16 27  1  0
 17 19  1  0
 17 28  1  0
 18 21  1  0
 18 25  1  0
 19 25  1  0
 19 29  1  0
 20 30  1  0
 21 22  1  0
  1 31  1  0
  2 32  1  0
  3 33  1  0
  4 34  1  0
  5 35  1  0
  6 36  1  0
  7 37  1  0
  8 38  1  0
  9 39  1  0
 15 40  1  0
 16 41  1  0
 17 42  1  0
 18 43  1  0
 19 44  1  0
 20 45  1  0
 20 46  1  0
 20 47  1  0
 21 48  1  0
 21 49  1  0
 22 50  1  0
 26 51  1  0
 27 52  1  0
 28 53  1  0
M  END
> <Name>
BR010172

$$$$
BR010173
  SciTegic05062102053D

 57 59  0  0  1  0            999 V2000
    4.9766   -3.9495   -4.2530 C   0  0
    3.0855   -5.1545   -5.1521 C   0  0
   -0.8544   -7.5346    0.6394 C   0  0
   -2.1965   -5.8177    1.6825 C   0  0
    4.1977   -2.7961   -4.1601 C   0  0
    2.3065   -4.0012   -5.0593 C   0  0
    0.2882   -6.7580    0.8311 C   0  0
   -1.0538   -5.0410    1.8742 C   0  0
    4.4206   -5.1286   -4.7490 C   0  0
   -2.0968   -7.0645    1.0650 C   0  0
    2.8626   -2.8220   -4.5633 C   0  0
    0.1885   -5.5112    1.4485 C   0  0
    5.2325   -6.3313   -4.8457 C   0  0
    0.7233    0.6893   -1.9268 C   0  0  1  0  0  0
    0.1626   -0.3970   -1.0083 C   0  0  2  0  0  0
    1.0679    0.1207   -3.3030 C   0  0  2  0  0  0
    1.1199   -1.5934   -0.9760 C   0  0  1  0  0  0
    1.9375   -1.1315   -3.1696 C   0  0  1  0  0  0
   -3.3188   -7.8943    0.8595 C   0  0
    5.1649   -8.7151   -4.7740 C   0  0
    0.5950   -2.7518   -0.1363 C   0  0
    1.6704   -3.6130    0.2286 N   0  0
    6.4561   -6.3367   -5.0357 O   0  0
    1.3798   -3.6198    2.7952 O   0  0
    2.7632   -5.4399    1.7474 O   0  0
    1.3267   -2.0883   -2.3049 O   0  0
   -0.2303    1.7405   -2.0532 O   0  0
   -1.1121   -0.8043   -1.5106 O   0  0
    1.7818    1.1166   -4.0347 O   0  0
    2.0984   -1.6910   -4.4725 O   0  0
    4.4764   -7.4621   -4.6992 O   0  0
    1.6368   -4.5277    1.6937 S   0  0
    6.0158   -3.9175   -3.9355 H   0  0
    2.6427   -6.0684   -5.5398 H   0  0
   -0.7671   -8.5045    0.1571 H   0  0
   -3.1603   -5.4431    2.0170 H   0  0
    4.6366   -1.8807   -3.7730 H   0  0
    1.2671   -4.0273   -5.3751 H   0  0
    1.2512   -7.1334    0.4952 H   0  0
   -1.1430   -4.0709    2.3560 H   0  0
    1.6205    1.1273   -1.4713 H   0  0
   -0.0004    0.0130   -0.0050 H   0  0
    0.1516   -0.0940   -3.8664 H   0  0
    2.0891   -1.2829   -0.5645 H   0  0
    2.9371   -0.8744   -2.7968 H   0  0
   -3.4853   -8.5495    1.7233 H   0  0
   -4.2086   -7.2662    0.7226 H   0  0
   -3.2298   -8.5189   -0.0390 H   0  0
    4.4514   -9.5322   -4.6421 H   0  0
    5.9316   -8.7576   -3.9963 H   0  0
    5.6383   -8.8025   -5.7548 H   0  0
   -0.1261   -3.3097   -0.7209 H   0  0
    0.1329   -2.3593    0.7606 H   0  0
    2.2738   -4.0026   -0.5342 H   0  0
   -0.3811    2.0859   -1.1596 H   0  0
   -1.4359   -1.4895   -0.9074 H   0  0
    2.5803    1.3137   -3.5221 H   0  0
  1  5  2  0
  1  9  1  0
  2  6  1  0
  2  9  2  0
  3  7  1  0
  3 10  2  0
  4  8  2  0
  4 10  1  0
  5 11  1  0
  6 11  2  0
  7 12  2  0
  8 12  1  0
  9 13  1  0
 10 19  1  0
 11 30  1  0
 12 32  1  0
 13 23  2  0
 13 31  1  0
 14 15  1  0
 14 16  1  0
 14 27  1  0
 15 17  1  0
 15 28  1  0
 16 18  1  0
 16 29  1  0
 17 21  1  0
 17 26  1  0
 18 26  1  0
 18 30  1  0
 20 31  1  0
 21 22  1  0
 22 32  1  0
 24 32  2  0
 25 32  2  0
  1 33  1  0
  2 34  1  0
  3 35  1  0
  4 36  1  0
  5 37  1  0
  6 38  1  0
  7 39  1  0
  8 40  1  0
 14 41  1  0
 15 42  1  0
 16 43  1  0
 17 44  1  0
 18 45  1  0
 19 46  1  0
 19 47  1  0
 19 48  1  0
 20 49  1  0
 20 50  1  0
 20 51  1  0
 21 52  1  0
 21 53  1  0
 22 54  1  0
 27 55  1  0
 28 56  1  0
 29 57  1  0
M  END
> <Name>
BR010173

$$$$
BR010174
  SciTegic05062102053D

 47 48  0  0  1  0            999 V2000
    4.9766   -3.9495   -4.2530 C   0  0
    3.0855   -5.1545   -5.1521 C   0  0
    4.1977   -2.7961   -4.1601 C   0  0
    2.3065   -4.0012   -5.0593 C   0  0
    4.4206   -5.1286   -4.7490 C   0  0
    2.8626   -2.8220   -4.5633 C   0  0
    5.2325   -6.3313   -4.8457 C   0  0
    0.7233    0.6893   -1.9268 C   0  0  1  0  0  0
    0.1626   -0.3970   -1.0083 C   0  0  2  0  0  0
    1.0679    0.1207   -3.3030 C   0  0  2  0  0  0
    1.1199   -1.5934   -0.9760 C   0  0  1  0  0  0
    1.9375   -1.1315   -3.1696 C   0  0  1  0  0  0
    5.1649   -8.7151   -4.7740 C   0  0
    0.1114   -5.2577    1.6754 C   0  0
    0.5950   -2.7518   -0.1363 C   0  0
    1.6704   -3.6130    0.2286 N   0  0
    6.4561   -6.3367   -5.0357 O   0  0
    2.5802   -5.8879    1.0770 O   0  0
    0.8415   -5.8866   -0.7488 O   0  0
    1.3267   -2.0883   -2.3049 O   0  0
   -0.2303    1.7405   -2.0532 O   0  0
   -1.1121   -0.8043   -1.5106 O   0  0
    1.7818    1.1166   -4.0347 O   0  0
    2.0984   -1.6910   -4.4725 O   0  0
    4.4764   -7.4621   -4.6992 O   0  0
    1.4049   -5.3088    0.4563 S   0  0
    6.0158   -3.9175   -3.9355 H   0  0
    2.6427   -6.0684   -5.5398 H   0  0
    4.6366   -1.8807   -3.7730 H   0  0
    1.2671   -4.0273   -5.3751 H   0  0
    1.6205    1.1273   -1.4713 H   0  0
   -0.0004    0.0130   -0.0050 H   0  0
    0.1516   -0.0940   -3.8664 H   0  0
    2.0891   -1.2829   -0.5645 H   0  0
    2.9371   -0.8744   -2.7968 H   0  0
    4.4514   -9.5322   -4.6421 H   0  0
    5.9316   -8.7576   -3.9963 H   0  0
    5.6383   -8.8025   -5.7548 H   0  0
   -0.1676   -6.2827    1.9247 H   0  0
    0.4899   -4.7392    2.5576 H   0  0
   -0.7395   -4.7218    1.2522 H   0  0
   -0.1261   -3.3097   -0.7209 H   0  0
    0.1329   -2.3593    0.7606 H   0  0
    2.3936   -3.2086    0.8720 H   0  0
   -0.3811    2.0859   -1.1596 H   0  0
   -1.4359   -1.4895   -0.9074 H   0  0
    2.5803    1.3137   -3.5221 H   0  0
  1  3  2  0
  1  5  1  0
  2  4  1  0
  2  5  2  0
  3  6  1  0
  4  6  2  0
  5  7  1  0
  6 24  1  0
  7 17  2  0
  7 25  1  0
  8  9  1  0
  8 10  1  0
  8 21  1  0
  9 11  1  0
  9 22  1  0
 10 12  1  0
 10 23  1  0
 11 15  1  0
 11 20  1  0
 12 20  1  0
 12 24  1  0
 13 25  1  0
 14 26  1  0
 15 16  1  0
 16 26  1  0
 18 26  2  0
 19 26  2  0
  1 27  1  0
  2 28  1  0
  3 29  1  0
  4 30  1  0
  8 31  1  0
  9 32  1  0
 10 33  1  0
 11 34  1  0
 12 35  1  0
 13 36  1  0
 13 37  1  0
 13 38  1  0
 14 39  1  0
 14 40  1  0
 14 41  1  0
 15 42  1  0
 15 43  1  0
 16 44  1  0
 21 45  1  0
 22 46  1  0
 23 47  1  0
M  END
> <Name>
BR010174

$$$$
BR010175
  SciTegic05062102053D

 44 46  0  0  1  0            999 V2000
   -5.8391   -1.4291   -1.5736 C   0  0
   -4.8477   -0.7193   -3.6594 C   0  0
   -4.5876   -1.8468   -1.1210 C   0  0
   -3.5962   -1.1370   -3.2067 C   0  0
   -5.9691   -0.8654   -2.8429 C   0  0
   -3.4662   -1.7008   -1.9375 C   0  0
   -7.2738   -0.4296   -3.3150 C   0  0
   -1.1334    2.1171    0.2963 C   0  0
   -1.1401    0.6263    0.6279 C   0  0  2  0  0  0
    0.2671    0.1421    0.9815 C   0  0  1  0  0  0
    0.2663   -1.3722    1.1917 C   0  0  1  0  0  0
   -0.3795   -2.0955    0.0100 C   0  0  2  0  0  0
   -1.7466   -1.4862   -0.3083 C   0  0  1  0  0  0
   -8.4273    0.5632   -5.1524 C   0  0
    2.0942    2.7368    0.7459 C   0  0
   -0.1596    2.4017   -0.7596 N   0  0
   -8.3212   -0.5196   -2.6607 O   0  0
    2.2910    1.9651   -1.7384 O   0  0
   -1.6420   -0.0799   -0.5147 O   0  0
    1.1645    0.4586   -0.0906 O   0  0
    1.6084   -1.8150    1.3735 O   0  0
   -0.5705   -3.4706    0.3415 O   0  0
   -2.2387   -2.1105   -1.4938 O   0  0
   -7.2028    0.0960   -4.5762 O   0  0
    1.3189    1.9822   -0.6629 S   0  0  1  0  0  0
   -6.7058   -1.5477   -0.9284 H   0  0
   -4.9384   -0.2810   -4.6500 H   0  0
   -4.4928   -2.2854   -0.1313 H   0  0
   -2.7263   -1.0209   -3.8474 H   0  0
   -2.1209    2.4269   -0.0631 H   0  0
   -0.9017    2.7109    1.1869 H   0  0
   -1.8272    0.4534    1.4661 H   0  0
    0.6406    0.6277    1.8897 H   0  0
   -0.2758   -1.6116    2.1149 H   0  0
    0.2755   -2.0645   -0.8686 H   0  0
   -2.4644   -1.6950    0.4948 H   0  0
   -8.2333    0.9555   -6.1537 H   0  0
   -8.8538    1.3453   -4.5193 H   0  0
   -9.1294   -0.2712   -5.2202 H   0  0
    3.1365    2.4155    0.7785 H   0  0
    2.0314    3.8202    0.6343 H   0  0
    1.5660    2.4133    1.6440 H   0  0
    1.9482   -1.3534    2.1558 H   0  0
   -1.1506   -3.4877    1.1178 H   0  0
  1  3  2  0
  1  5  1  0
  2  4  1  0
  2  5  2  0
  3  6  1  0
  4  6  2  0
  5  7  1  0
  6 23  1  0
  7 17  2  0
  7 24  1  0
  8  9  1  0
  8 16  1  0
  9 10  1  0
  9 19  1  0
 10 11  1  0
 10 20  1  0
 11 12  1  0
 11 21  1  0
 12 13  1  0
 12 22  1  0
 13 19  1  0
 13 23  1  0
 14 24  1  0
 15 25  1  0
 16 25  2  0
 18 25  2  0
 20 25  1  0
  1 26  1  0
  2 27  1  0
  3 28  1  0
  4 29  1  0
  8 30  1  0
  8 31  1  0
  9 32  1  0
 10 33  1  0
 11 34  1  0
 12 35  1  0
 13 36  1  0
 14 37  1  0
 14 38  1  0
 14 39  1  0
 15 40  1  0
 15 41  1  0
 15 42  1  0
 21 43  1  0
 22 44  1  0
M  END
> <Name>
BR010175

$$$$
BR010176
  SciTegic05062102053D

 37 38  0  0  0  0            999 V2000
    0.5230    4.2819    9.0683 C   0  0
    0.8668    3.5876    8.1513 C   0  0
    2.0904   -0.0233    0.5120 C   0  0
    0.7565    0.3269    0.7074 C   0  0
    3.0630    0.3964    1.4200 C   0  0
    0.3919    1.0979    1.8113 C   0  0
    2.6999    1.1705    2.5297 C   0  0
    1.3668    1.5201    2.7240 C   0  0
    3.7346    1.6083    3.4821 C   0  0
    0.9733    2.3337    3.8841 C   0  0
    3.3202    2.4281    4.6633 C   0  0
    2.0288    2.7650    4.8386 C   0  0
    5.1067    4.0845    5.1377 C   0  0
    5.2523    5.2404    5.8138 C   0  0
    5.9513    6.4649    5.2947 C   0  0
    4.7045    5.3820    7.2092 C   0  0
    1.2852    2.7393    7.0349 C   0  0
    4.4240    2.8339    5.5972 C   0  0
    4.9092    1.3022    3.3049 O   0  0
   -0.1980    2.6492    4.0637 O   0  0
    1.6264    3.5253    5.9199 O   0  0
    0.2179    4.8978    9.8819 H   0  0
    2.3740   -0.6231   -0.3480 H   0  0
   -0.0001   -0.0004    0.0003 H   0  0
    4.0967    0.1110    1.2446 H   0  0
   -0.6549    1.3586    1.9425 H   0  0
    5.5506    4.0152    4.1448 H   0  0
    5.2390    7.1127    4.7732 H   0  0
    6.7688    6.2418    4.6058 H   0  0
    6.3848    7.0308    6.1266 H   0  0
    5.4308    5.0892    7.9749 H   0  0
    4.4200    6.4217    7.4014 H   0  0
    3.8191    4.7499    7.3339 H   0  0
    0.4904    2.0468    6.7412 H   0  0
    2.1634    2.1472    7.3092 H   0  0
    4.0149    2.9242    6.6033 H   0  0
    5.1566    2.0237    5.6328 H   0  0
  1  2  3  0
  2 17  1  0
  3  4  1  0
  3  5  2  0
  4  6  2  0
  5  7  1  0
  6  8  1  0
  7  8  2  0
  7  9  1  0
  8 10  1  0
  9 11  1  0
  9 19  2  0
 10 12  1  0
 10 20  2  0
 11 12  2  0
 11 18  1  0
 12 21  1  0
 13 14  2  0
 13 18  1  0
 14 15  1  0
 14 16  1  0
 17 21  1  0
  1 22  1  0
  3 23  1  0
  4 24  1  0
  5 25  1  0
  6 26  1  0
 13 27  1  0
 15 28  1  0
 15 29  1  0
 15 30  1  0
 16 31  1  0
 16 32  1  0
 16 33  1  0
 17 34  1  0
 17 35  1  0
 18 36  1  0
 18 37  1  0
M  END
> <Name>
BR010176

$$$$
BR010177
  SciTegic05062102053D

 37 38  0  0  1  0            999 V2000
    0.4668    3.0688    0.8775 C   0  0
    0.7032    3.1028   -0.5499 C   0  0
    0.3006    1.9017    1.5210 C   0  0
    0.4438    2.0313   -1.3171 C   0  0
   -0.5430   -1.7951    0.5397 C   0  0
   -0.1220   -1.7898   -0.7440 C   0  0
   -0.4773   -0.5200    1.3508 C   0  0
    0.2840   -0.5085   -1.4163 C   0  0
   -2.5421   -3.1076    1.2041 C   0  0
   -3.2846   -4.1239    0.7243 C   0  0
    0.3594    0.6045    0.7599 C   0  0  1  0  0  0
   -0.1003    0.7729   -0.6969 C   0  0  1  0  0  0
   -4.7864   -4.1615    0.6970 C   0  0
   -2.6218   -5.3551    0.1656 C   0  0
    1.1414   -3.6197   -1.4018 C   0  0
   -1.0484   -3.0090    1.2598 C   0  0
   -1.0201   -0.4500    2.4505 O   0  0
    0.8285   -0.5347   -2.5167 O   0  0
   -0.0876   -2.9421   -1.5020 O   0  0
    0.4608    4.0091    1.4174 H   0  0
    1.0638    4.0272   -0.9868 H   0  0
    0.1763    1.8958    2.5991 H   0  0
    0.5788    2.0935   -2.3921 H   0  0
   -3.0646   -2.2512    1.6301 H   0  0
    1.4029    0.2568    0.8115 H   0  0
   -1.1974    0.8357   -0.7639 H   0  0
   -5.1569   -3.7355   -0.2412 H   0  0
   -5.2516   -3.6154    1.5204 H   0  0
   -5.1374   -5.1969    0.7664 H   0  0
   -2.4512   -6.1209    0.9296 H   0  0
   -3.2454   -5.7996   -0.6170 H   0  0
   -1.6498   -5.0977   -0.2680 H   0  0
    1.1130   -4.5207   -2.0195 H   0  0
    1.3276   -3.8861   -0.3583 H   0  0
    1.9394   -2.9629   -1.7560 H   0  0
   -0.5556   -3.8917    0.8503 H   0  0
   -0.7389   -2.9421    2.3067 H   0  0
  1  2  1  0
  1  3  2  0
  2  4  2  0
  3 11  1  0
  4 12  1  0
  5  6  2  0
  5  7  1  0
  5 16  1  0
  6  8  1  0
  6 19  1  0
  7 11  1  0
  7 17  2  0
  8 12  1  0
  8 18  2  0
  9 10  2  0
  9 16  1  0
 10 13  1  0
 10 14  1  0
 11 12  1  0
 15 19  1  0
  1 20  1  0
  2 21  1  0
  3 22  1  0
  4 23  1  0
  9 24  1  0
 11 25  1  0
 12 26  1  0
 13 27  1  0
 13 28  1  0
 13 29  1  0
 14 30  1  0
 14 31  1  0
 14 32  1  0
 15 33  1  0
 15 34  1  0
 15 35  1  0
 16 36  1  0
 16 37  1  0
M  END
> <Name>
BR010177

$$$$
BR010178
  SciTegic05062102053D

 75 77  0  0  1  0            999 V2000
    1.2321   -0.2419   -7.2524 C   0  0
    0.7602   -1.5938   -7.4631 C   0  0
    1.4494    0.2269   -6.0127 C   0  0
    0.2210   -2.3003   -6.4561 C   0  0
    0.4250   -0.7793   -2.3687 C   0  0
    0.1851   -2.0954   -2.5566 C   0  0
    0.8049    0.0852   -3.5503 C   0  0
    0.1591   -2.6840   -3.9392 C   0  0
   -0.9510    0.5369   -0.7766 C   0  0
   -1.7809    0.3137    0.2605 C   0  0
   -2.7978   -6.9971    0.9923 C   0  0
   -5.9474   -4.9055    0.4172 C   0  0
    0.6094   -5.3120    0.1371 C   0  0
   -5.0511   -0.1172   -3.3685 C   0  0
    1.2038   -0.6550   -4.8179 C   0  0  1  0  0  0
    0.0997   -1.6898   -5.0861 C   0  0  1  0  0  0
   -2.9396   -5.0656   -0.3616 C   0  0  1  0  0  0
   -4.0030   -3.9857   -0.5613 C   0  0  1  0  0  0
   -1.5320   -4.4703   -0.4011 C   0  0  2  0  0  0
   -3.6768   -3.1211   -1.7813 C   0  0  1  0  0  0
   -1.3490   -3.5557   -1.6122 C   0  0  1  0  0  0
   -3.1116    0.9812    0.4640 C   0  0
   -1.4030   -0.6619    1.3434 C   0  0
   -3.0751   -7.5071    2.3740 C   0  0
   -7.2439   -5.5799    0.0853 C   0  0
    1.4882   -6.5170   -0.0108 C   0  0
   -4.5347    0.5767   -4.5923 C   0  0
    0.3830   -0.0931   -1.0364 C   0  0
   -4.6506   -1.9577   -1.9416 C   0  0
    0.8468    1.3081   -3.4424 O   0  0
    0.1163   -3.9019   -4.0907 O   0  0
   -2.3240   -7.6780    0.0929 O   0  0
   -5.5803   -4.6488    1.5559 O   0  0
    0.9429   -4.2878    0.7175 O   0  0
   -6.0286    0.2527   -2.7322 O   0  0
   -2.3695   -2.5608   -1.6461 O   0  0
   -0.0876   -2.9421   -1.5020 O   0  0
   -3.1526   -5.6821    0.9094 O   0  0
   -5.2619   -4.6317   -0.7322 O   0  0
   -0.5929   -5.5425   -0.4673 O   0  0
   -4.2723   -1.2071   -3.0810 O   0  0
    1.4366    0.3700   -8.1238 H   0  0
    0.8238   -2.0077   -8.4631 H   0  0
    1.8524    1.2257   -5.8792 H   0  0
   -0.1740   -3.2931   -6.6462 H   0  0
   -1.2501    1.2767   -1.5189 H   0  0
    2.1623   -1.1448   -4.5864 H   0  0
   -0.8992   -1.2302   -5.0316 H   0  0
   -3.0506   -5.8579   -1.1126 H   0  0
   -4.0622   -3.3722    0.3470 H   0  0
   -1.3308   -3.9255    0.5300 H   0  0
   -3.7208   -3.7205   -2.7003 H   0  0
   -1.3522   -4.1346   -2.5445 H   0  0
   -3.9037    0.3956   -0.0141 H   0  0
   -3.1563    1.9963    0.0637 H   0  0
   -3.3358    1.0533    1.5339 H   0  0
   -0.8523   -0.1855    2.1615 H   0  0
   -2.3005   -1.1213    1.7704 H   0  0
   -0.7675   -1.4541    0.9339 H   0  0
   -2.1968   -7.3591    3.0072 H   0  0
   -3.3458   -8.5652    2.3315 H   0  0
   -3.9129   -6.9510    2.8045 H   0  0
   -8.0267   -4.8303   -0.0544 H   0  0
   -7.5147   -6.2761    0.8831 H   0  0
   -7.1314   -6.1441   -0.8450 H   0  0
    1.3350   -7.1936    0.8335 H   0  0
    2.5346   -6.2076   -0.0719 H   0  0
    1.2274   -7.0451   -0.9326 H   0  0
   -3.8019    1.3354   -4.3071 H   0  0
   -5.3650    1.0294   -5.1402 H   0  0
   -4.0453   -0.1532   -5.2437 H   0  0
    0.6653   -0.8085   -0.2629 H   0  0
    1.1488    0.6878   -1.0270 H   0  0
   -4.6138   -1.3177   -1.0600 H   0  0
   -5.6634   -2.3363   -2.0795 H   0  0
  1  2  1  0
  1  3  2  0
  2  4  2  0
  3 15  1  0
  4 16  1  0
  5  6  2  0
  5  7  1  0
  5 28  1  0
  6  8  1  0
  6 37  1  0
  7 15  1  0
  7 30  2  0
  8 16  1  0
  8 31  2  0
  9 10  2  0
  9 28  1  0
 10 22  1  0
 10 23  1  0
 11 24  1  0
 11 32  2  0
 11 38  1  0
 12 25  1  0
 12 33  2  0
 12 39  1  0
 13 26  1  0
 13 34  2  0
 13 40  1  0
 14 27  1  0
 14 35  2  0
 14 41  1  0
 15 16  1  0
 17 18  1  0
 17 19  1  0
 17 38  1  0
 18 20  1  0
 18 39  1  0
 19 21  1  0
 19 40  1  0
 20 29  1  0
 20 36  1  0
 21 36  1  0
 21 37  1  0
 29 41  1  0
  1 42  1  0
  2 43  1  0
  3 44  1  0
  4 45  1  0
  9 46  1  0
 15 47  1  0
 16 48  1  0
 17 49  1  0
 18 50  1  0
 19 51  1  0
 20 52  1  0
 21 53  1  0
 22 54  1  0
 22 55  1  0
 22 56  1  0
 23 57  1  0
 23 58  1  0
 23 59  1  0
 24 60  1  0
 24 61  1  0
 24 62  1  0
 25 63  1  0
 25 64  1  0
 25 65  1  0
 26 66  1  0
 26 67  1  0
 26 68  1  0
 27 69  1  0
 27 70  1  0
 27 71  1  0
 28 72  1  0
 28 73  1  0
 29 74  1  0
 29 75  1  0
M  END
> <Name>
BR010178

$$$$
BR010179
  SciTegic05062102053D

 75 77  0  0  1  0            999 V2000
    3.5841   -6.1233    2.7990 C   0  0
    3.8531   -6.6411    1.4746 C   0  0
    2.6109   -5.2200    3.0014 C   0  0
    3.3831   -6.0171    0.3820 C   0  0
    0.5161   -2.7506    0.7982 C   0  0
    0.6175   -3.3724   -0.3970 C   0  0
    1.2434   -3.3173    1.9971 C   0  0
    1.5472   -4.5385   -0.5821 C   0  0
   -1.4380   -1.8070    2.0030 C   0  0
   -1.6986   -1.1900    3.1716 C   0  0
   -5.6440   -2.6722   -3.6767 C   0  0
   -3.4550   -5.2793   -5.6087 C   0  0
   -2.6642   -0.3587   -2.6660 C   0  0
   -0.9201   -8.8702   -2.0930 C   0  0
    1.7809   -4.7321    1.8445 C   0  0  1  0  0  0
    2.5651   -4.7620    0.5231 C   0  0  1  0  0  0
   -3.5574   -3.3546   -2.8023 C   0  0  1  0  0  0
   -3.3489   -4.7851   -3.3004 C   0  0  2  0  0  0
   -2.2203   -2.6744   -2.5101 C   0  0  2  0  0  0
   -2.4520   -5.5495   -2.3205 C   0  0  1  0  0  0
   -1.3490   -3.5557   -1.6122 C   0  0  1  0  0  0
   -2.8446   -1.5169    4.0867 C   0  0
   -0.8180   -0.0682    3.6547 C   0  0
   -6.2701   -1.8514   -4.7632 C   0  0
   -2.6897   -5.1533   -6.8910 C   0  0
   -2.9273    0.8628   -1.8386 C   0  0
   -0.0407   -9.3889   -0.9959 C   0  0
   -0.3169   -1.5296    1.0489 C   0  0
   -2.1367   -6.9663   -2.7850 C   0  0
    1.3196   -2.6766    3.0425 O   0  0
    1.5041   -5.2045   -1.6130 O   0  0
   -6.2786   -3.2923   -2.8343 O   0  0
   -4.5595   -5.7980   -5.5181 O   0  0
   -2.6254   -0.3627   -3.8890 O   0  0
   -1.2410   -9.5200   -3.0789 O   0  0
   -1.2036   -4.8630   -2.1652 O   0  0
   -0.0876   -2.9421   -1.5020 O   0  0
   -4.2830   -2.6143   -3.7800 O   0  0
   -2.7322   -4.7329   -4.5888 O   0  0
   -2.4807   -1.4367   -1.8488 O   0  0
   -1.2987   -7.5817   -1.8231 O   0  0
    4.1677   -6.5093    3.6272 H   0  0
    4.4717   -7.5272    1.3878 H   0  0
    2.3915   -4.8837    4.0096 H   0  0
    3.6388   -6.3918   -0.6038 H   0  0
   -2.1218   -2.5903    1.6764 H   0  0
    0.8941   -5.3830    1.7971 H   0  0
    3.2677   -3.9170    0.4573 H   0  0
   -4.1726   -3.3688   -1.8936 H   0  0
   -4.3189   -5.2798   -3.4252 H   0  0
   -1.7032   -2.4333   -3.4469 H   0  0
   -2.9409   -5.6109   -1.3396 H   0  0
   -1.7717   -3.6215   -0.6017 H   0  0
   -2.5435   -2.2832    4.8085 H   0  0
   -3.7317   -1.8792    3.5628 H   0  0
   -3.1487   -0.6227    4.6418 H   0  0
   -1.1600    0.9117    3.3050 H   0  0
   -0.8015   -0.0432    4.7492 H   0  0
    0.2063   -0.2093    3.2942 H   0  0
   -6.4130   -0.8249   -4.4169 H   0  0
   -7.2241   -2.2946   -5.0598 H   0  0
   -5.6080   -1.8367   -5.6338 H   0  0
   -2.9425   -4.2107   -7.3827 H   0  0
   -2.9158   -6.0009   -7.5428 H   0  0
   -1.6173   -5.1572   -6.6752 H   0  0
   -4.0010    0.9692   -1.6652 H   0  0
   -2.5291    1.7462   -2.3443 H   0  0
   -2.4264    0.7605   -0.8715 H   0  0
    1.0052   -9.1688   -1.2237 H   0  0
   -0.1912  -10.4648   -0.8772 H   0  0
   -0.3041   -8.8952   -0.0560 H   0  0
    0.3337   -0.7239    1.3913 H   0  0
   -0.7395   -1.1994    0.0958 H   0  0
   -1.6208   -6.9384   -3.7455 H   0  0
   -3.0578   -7.5423   -2.8802 H   0  0
  1  2  1  0
  1  3  2  0
  2  4  2  0
  3 15  1  0
  4 16  1  0
  5  6  2  0
  5  7  1  0
  5 28  1  0
  6  8  1  0
  6 37  1  0
  7 15  1  0
  7 30  2  0
  8 16  1  0
  8 31  2  0
  9 10  2  0
  9 28  1  0
 10 22  1  0
 10 23  1  0
 11 24  1  0
 11 32  2  0
 11 38  1  0
 12 25  1  0
 12 33  2  0
 12 39  1  0
 13 26  1  0
 13 34  2  0
 13 40  1  0
 14 27  1  0
 14 35  2  0
 14 41  1  0
 15 16  1  0
 17 18  1  0
 17 19  1  0
 17 38  1  0
 18 20  1  0
 18 39  1  0
 19 21  1  0
 19 40  1  0
 20 29  1  0
 20 36  1  0
 21 36  1  0
 21 37  1  0
 29 41  1  0
  1 42  1  0
  2 43  1  0
  3 44  1  0
  4 45  1  0
  9 46  1  0
 15 47  1  0
 16 48  1  0
 17 49  1  0
 18 50  1  0
 19 51  1  0
 20 52  1  0
 21 53  1  0
 22 54  1  0
 22 55  1  0
 22 56  1  0
 23 57  1  0
 23 58  1  0
 23 59  1  0
 24 60  1  0
 24 61  1  0
 24 62  1  0
 25 63  1  0
 25 64  1  0
 25 65  1  0
 26 66  1  0
 26 67  1  0
 26 68  1  0
 27 69  1  0
 27 70  1  0
 27 71  1  0
 28 72  1  0
 28 73  1  0
 29 74  1  0
 29 75  1  0
M  END
> <Name>
BR010179

$$$$
BR010180
  SciTegic05062102053D

 76 78  0  0  1  0            999 V2000
    2.5083   -2.8301   -7.4475 C   0  0
    1.9810   -4.1526   -7.1877 C   0  0
    2.5217   -1.8923   -6.4860 C   0  0
    1.2067   -4.3875   -6.1157 C   0  0
    0.7478   -1.3218   -3.0410 C   0  0
    0.4459   -2.6008   -2.7277 C   0  0
    1.4117   -1.0157   -4.3651 C   0  0
    0.6375   -3.7050   -3.7290 C   0  0
   -0.7989    0.5221   -2.4341 C   0  0
   -1.8258    0.7382   -1.5896 C   0  0
   -0.7569   -4.8975    1.7899 C   0  0
   -4.7188   -5.3874    1.3715 C   0  0
   -6.5248   -3.5001   -0.7117 C   0  0
   -4.3013   -1.1821   -5.3903 C   0  0
    1.9854   -2.2080   -5.1156 C   0  0  1  0  0  0
    0.8751   -3.2695   -5.1647 C   0  0  1  0  0  0
   -1.8484   -3.8833   -0.2008 C   0  0  2  0  0  0
   -3.2909   -4.3974   -0.2301 C   0  0  2  0  0  0
   -4.1908   -3.4988   -1.0812 C   0  0  1  0  0  0
   -3.5518   -3.2321   -2.4465 C   0  0  1  0  0  0
   -1.3490   -3.5557   -1.6122 C   0  0  1  0  0  0
   -3.1145    1.4212   -1.9505 C   0  0
   -1.7380    0.2956   -0.1531 C   0  0
    0.1688   -5.9869    2.2192 C   0  0
   -5.1527   -5.2913    2.8027 C   0  0
   -7.7690   -4.3007   -0.9506 C   0  0
   -3.4917   -1.0720   -6.6467 C   0  0
    0.5069   -0.1497   -2.1378 C   0  0
   -4.3624   -2.2456   -3.2810 C   0  0
   -0.9823   -4.8586    0.4287 N   0  0
    1.5276    0.1440   -4.7530 O   0  0
    0.5293   -4.8782   -3.3823 O   0  0
   -1.2355   -4.1451    2.6304 O   0  0
   -5.1454   -6.2178    0.5805 O   0  0
   -6.5037   -2.4239   -0.1298 O   0  0
   -5.3463   -0.5769   -5.1933 O   0  0
   -2.2520   -2.6667   -2.2674 O   0  0
   -0.0876   -2.9421   -1.5020 O   0  0
   -3.7936   -4.4201    1.1075 O   0  0
   -5.4468   -4.1535   -1.2381 O   0  0
   -3.6989   -2.0482   -4.5163 O   0  0
    2.9219   -2.6283   -8.4291 H   0  0
    2.2011   -4.9400   -7.8997 H   0  0
    2.9688   -0.9240   -6.6865 H   0  0
    0.7787   -5.3736   -5.9664 H   0  0
   -0.8927    0.8900   -3.4557 H   0  0
    2.8412   -2.5531   -4.5148 H   0  0
   -0.0770   -2.8350   -5.5065 H   0  0
   -1.7887   -2.9894    0.4332 H   0  0
   -3.3254   -5.4302   -0.6005 H   0  0
   -4.3678   -2.5592   -0.5421 H   0  0
   -3.4669   -4.1638   -3.0213 H   0  0
   -1.2284   -4.4681   -2.2105 H   0  0
   -3.8446    0.6855   -2.3037 H   0  0
   -3.0030    2.1822   -2.7257 H   0  0
   -3.5318    1.9244   -1.0714 H   0  0
   -1.3174    1.0696    0.4977 H   0  0
   -2.7334    0.0456    0.2284 H   0  0
   -1.1001   -0.5904   -0.0686 H   0  0
    1.2226   -5.6648    2.2268 H   0  0
   -0.0369   -6.3338    3.2446 H   0  0
    0.1482   -6.8956    1.5965 H   0  0
   -4.5074   -5.9127    3.4285 H   0  0
   -6.1960   -5.6031    2.8958 H   0  0
   -5.0688   -4.2534    3.1381 H   0  0
   -8.2182   -4.0124   -1.9041 H   0  0
   -8.4735   -4.1451   -0.1297 H   0  0
   -7.5137   -5.3636   -0.9927 H   0  0
   -2.7622   -0.2643   -6.5482 H   0  0
   -4.1520   -0.8933   -7.4990 H   0  0
   -2.9534   -2.0094   -6.8145 H   0  0
    0.5801   -0.4828   -1.1018 H   0  0
    1.3154    0.5716   -2.2867 H   0  0
   -4.4410   -1.2923   -2.7581 H   0  0
   -5.3589   -2.6460   -3.4673 H   0  0
   -0.5200   -5.5448   -0.1578 H   0  0
  1  2  1  0
  1  3  2  0
  2  4  2  0
  3 15  1  0
  4 16  1  0
  5  6  2  0
  5  7  1  0
  5 28  1  0
  6  8  1  0
  6 38  1  0
  7 15  1  0
  7 31  2  0
  8 16  1  0
  8 32  2  0
  9 10  2  0
  9 28  1  0
 10 22  1  0
 10 23  1  0
 11 24  1  0
 11 30  1  0
 11 33  2  0
 12 25  1  0
 12 34  2  0
 12 39  1  0
 13 26  1  0
 13 35  2  0
 13 40  1  0
 14 27  1  0
 14 36  2  0
 14 41  1  0
 15 16  1  0
 17 18  1  0
 17 21  1  0
 17 30  1  0
 18 19  1  0
 18 39  1  0
 19 20  1  0
 19 40  1  0
 20 29  1  0
 20 37  1  0
 21 37  1  0
 21 38  1  0
 29 41  1  0
  1 42  1  0
  2 43  1  0
  3 44  1  0
  4 45  1  0
  9 46  1  0
 15 47  1  0
 16 48  1  0
 17 49  1  0
 18 50  1  0
 19 51  1  0
 20 52  1  0
 21 53  1  0
 22 54  1  0
 22 55  1  0
 22 56  1  0
 23 57  1  0
 23 58  1  0
 23 59  1  0
 24 60  1  0
 24 61  1  0
 24 62  1  0
 25 63  1  0
 25 64  1  0
 25 65  1  0
 26 66  1  0
 26 67  1  0
 26 68  1  0
 27 69  1  0
 27 70  1  0
 27 71  1  0
 28 72  1  0
 28 73  1  0
 29 74  1  0
 29 75  1  0
 30 76  1  0
M  END
> <Name>
BR010180

$$$$
BR010181
  SciTegic05062102053D

 69 71  0  0  1  0            999 V2000
    0.0619    2.6993    2.6617 C   0  0
    0.5558    2.6908    1.3014 C   0  0
   -0.6197    1.6520    3.1542 C   0  0
    0.6407    1.5447    0.6062 C   0  0
   -1.1353   -2.1115    2.1998 C   0  0
   -0.8637   -2.0485    0.8779 C   0  0
   -1.0037   -0.8659    3.0478 C   0  0
   -0.3046   -0.7954    0.2652 C   0  0
   -0.4701   -4.2235    3.3211 C   0  0
   -0.1660   -4.6528    4.5611 C   0  0
   -5.3462   -6.4705   -2.4126 C   0  0
   -3.5353   -4.2389   -5.0711 C   0  0
   -2.2744   -6.7621   -0.0145 C   0  0
   -0.8815    0.4476    2.2904 C   0  0  2  0  0  0
    0.2207    0.2456    1.2387 C   0  0  2  0  0  0
   -3.9189   -4.7182   -1.7228 C   0  0  2  0  0  0
   -3.9959   -3.6626   -2.8262 C   0  0  1  0  0  0
   -2.5947   -4.6218   -0.9631 C   0  0  1  0  0  0
   -3.7045   -2.2766   -2.2415 C   0  0  2  0  0  0
   -2.3337   -3.1820   -0.5120 C   0  0  2  0  0  0
    0.9973   -5.5374    4.9101 C   0  0
   -1.0235   -4.2615    5.7353 C   0  0
   -5.3445   -7.8367   -3.0288 C   0  0
   -2.4147   -4.5562   -6.0144 C   0  0
   -2.4061   -7.5304    1.2656 C   0  0
   -3.6939   -1.1767   -3.2961 C   0  0
   -1.6105   -3.3441    2.9086 C   0  0
   -1.0649   -0.9344    4.2728 O   0  0
   -0.2274   -0.6864   -0.9555 O   0  0
   -6.3587   -5.8733   -2.0730 O   0  0
   -4.7159   -4.2193   -5.3917 O   0  0
   -1.8698   -7.2436   -1.0640 O   0  0
   -2.4176   -2.2765   -1.6111 O   0  0
   -1.0433   -3.1350    0.0468 O   0  0
   -4.0637   -6.0143   -2.2966 O   0  0
   -3.0301   -3.9824   -3.8301 O   0  0
   -2.6701   -5.4703    0.1817 O   0  0
    0.2291    3.5876    3.2604 H   0  0
    0.8859    3.6297    0.8714 H   0  0
   -1.0259    1.7003    4.1594 H   0  0
    1.0620    1.5527   -0.3939 H   0  0
    0.1585   -4.5596    2.4967 H   0  0
   -1.8609    0.6093    1.8143 H   0  0
    1.1243   -0.1939    1.6881 H   0  0
   -4.7562   -4.5832   -1.0265 H   0  0
   -4.9822   -3.6964   -3.3031 H   0  0
   -1.7716   -4.9951   -1.5845 H   0  0
   -4.4622   -2.0230   -1.4887 H   0  0
   -3.0422   -2.8850    0.2718 H   0  0
    1.8777   -4.9286    5.1407 H   0  0
    1.2700   -6.2340    4.1144 H   0  0
    0.7577   -6.1425    5.7913 H   0  0
   -1.8341   -4.9752    5.9169 H   0  0
   -0.4180   -4.2076    6.6460 H   0  0
   -1.4786   -3.2809    5.5612 H   0  0
   -5.4091   -7.7531   -4.1164 H   0  0
   -6.1805   -8.4214   -2.6368 H   0  0
   -4.4122   -8.3486   -2.7732 H   0  0
   -2.0561   -3.6382   -6.4865 H   0  0
   -2.7557   -5.2698   -6.7687 H   0  0
   -1.5886   -5.0075   -5.4573 H   0  0
   -1.4762   -7.4638    1.8355 H   0  0
   -2.6515   -8.5732    1.0487 H   0  0
   -3.2140   -7.1006    1.8650 H   0  0
   -2.9493   -1.4003   -4.0601 H   0  0
   -3.4506   -0.2200   -2.8341 H   0  0
   -4.6738   -1.1033   -3.7676 H   0  0
   -2.2353   -3.0466    3.7516 H   0  0
   -2.2585   -3.9041    2.2283 H   0  0
  1  2  1  0
  1  3  2  0
  2  4  2  0
  3 14  1  0
  4 15  1  0
  5  6  2  0
  5  7  1  0
  5 27  1  0
  6  8  1  0
  6 34  1  0
  7 14  1  0
  7 28  2  0
  8 15  1  0
  8 29  2  0
  9 10  2  0
  9 27  1  0
 10 21  1  0
 10 22  1  0
 11 23  1  0
 11 30  2  0
 11 35  1  0
 12 24  1  0
 12 31  2  0
 12 36  1  0
 13 25  1  0
 13 32  2  0
 13 37  1  0
 14 15  1  0
 16 17  1  0
 16 18  1  0
 16 35  1  0
 17 19  1  0
 17 36  1  0
 18 20  1  0
 18 37  1  0
 19 26  1  0
 19 33  1  0
 20 33  1  0
 20 34  1  0
  1 38  1  0
  2 39  1  0
  3 40  1  0
  4 41  1  0
  9 42  1  0
 14 43  1  0
 15 44  1  0
 16 45  1  0
 17 46  1  0
 18 47  1  0
 19 48  1  0
 20 49  1  0
 21 50  1  0
 21 51  1  0
 21 52  1  0
 22 53  1  0
 22 54  1  0
 22 55  1  0
 23 56  1  0
 23 57  1  0
 23 58  1  0
 24 59  1  0
 24 60  1  0
 24 61  1  0
 25 62  1  0
 25 63  1  0
 25 64  1  0
 26 65  1  0
 26 66  1  0
 26 67  1  0
 27 68  1  0
 27 69  1  0
M  END
> <Name>
BR010181

$$$$
BR010182
  SciTegic05062102053D

 82 85  0  0  1  0            999 V2000
    2.5026   -0.8597   14.4176 C   0  0
    3.6563   -1.4235   13.8779 C   0  0
    1.9210    0.2548   13.8126 C   0  0
    4.2313   -0.8740   12.7319 C   0  0
    5.7675    2.5554    6.4975 C   0  0
    2.4959    0.8087   12.6615 C   0  0
    3.6488    0.2448   12.1231 C   0  0
    4.4281    2.5443    6.7957 C   0  0
    1.8738    1.9853   12.0308 C   0  0
    4.2628    0.8180   10.9160 C   0  0
    2.5030    2.5539   10.7979 C   0  0
    3.6210    2.0037   10.2888 C   0  0
    2.2528    5.0226   10.8532 C   0  0
    2.8018    6.1022   10.2637 C   0  0
   10.4343    6.3721    5.5777 C   0  0
   12.1164    2.8260    3.6462 C   0  0
    7.3774    6.0239    6.9356 C   0  0
    9.8145   -1.0095    3.7576 C   0  0
    9.3399    4.5051    4.6288 C   0  0  1  0  0  0
    9.8192    3.1557    4.0911 C   0  0  1  0  0  0
    8.0126    4.3654    5.3769 C   0  0  2  0  0  0
    8.7006    2.4538    3.3150 C   0  0  1  0  0  0
    7.0001    3.5635    4.5508 C   0  0  2  0  0  0
    3.2232    7.3567   10.9753 C   0  0
    3.0296    6.1254    8.7755 C   0  0
   11.5060    6.7573    6.5519 C   0  0
   13.1995    3.1551    2.6641 C   0  0
    6.8445    7.4208    7.0391 C   0  0
   10.1233   -1.7028    5.0499 C   0  0
    3.7274    1.9331    7.9733 C   0  0
    1.8133    3.7478   10.2029 C   0  0
    9.1050    1.0562    2.8559 C   0  0
    3.7354    3.2108    5.8233 N   0  0
    4.6102    3.6396    4.9200 N   0  0
    5.8280    3.2454    5.3260 N   0  0
    0.8604    2.4825   12.5110 O   0  0
    5.2798    0.3305   10.4346 O   0  0
    9.7672    7.1754    4.9400 O   0  0
   12.2856    2.1495    4.6517 O   0  0
    7.6453    5.3196    7.8997 O   0  0
    9.9023   -1.5390    2.6580 O   0  0
    7.5432    2.3078    4.1393 O   0  0
    4.2201    2.5165    9.1541 O   0  0
   10.3310    5.0127    5.5243 O   0  0
   10.9402    3.3913    3.2429 O   0  0
    7.5108    5.6788    5.6216 O   0  0
    9.4275    0.2828    3.9971 O   0  0
    2.0555   -1.2875   15.3103 H   0  0
    4.1084   -2.2913   14.3493 H   0  0
    1.0219    0.6767   14.2536 H   0  0
    5.1313   -1.3312   12.3295 H   0  0
    6.6405    2.1537    6.9922 H   0  0
    2.0732    5.0642   11.9273 H   0  0
    9.2557    5.2352    3.8140 H   0  0
   10.1594    2.5374    4.9317 H   0  0
    8.1922    3.8922    6.3510 H   0  0
    8.4342    3.0330    2.4208 H   0  0
    6.6345    4.1247    3.6833 H   0  0
    4.2660    7.2740   11.2988 H   0  0
    2.6162    7.5850   11.8540 H   0  0
    3.1398    8.2166   10.3016 H   0  0
    2.1706    6.5270    8.2275 H   0  0
    3.8979    6.7474    8.5343 H   0  0
    3.2139    5.1115    8.4053 H   0  0
   11.0756    6.8753    7.5494 H   0  0
   11.9868    7.6836    6.2274 H   0  0
   12.2624    5.9679    6.5898 H   0  0
   13.2419    2.3873    1.8876 H   0  0
   14.1588    3.2330    3.1820 H   0  0
   12.9805    4.1171    2.1916 H   0  0
    7.6730    8.1329    7.0655 H   0  0
    6.2254    7.5163    7.9347 H   0  0
    6.2255    7.6385    6.1638 H   0  0
   11.1784   -1.5679    5.3003 H   0  0
    9.8790   -2.7650    4.9686 H   0  0
    9.5168   -1.2669    5.8492 H   0  0
    2.6464    2.1006    7.9163 H   0  0
    3.8989    0.8518    8.0082 H   0  0
    1.9797    3.7467    9.1258 H   0  0
    0.7368    3.6289   10.3496 H   0  0
    9.9762    1.1166    2.2035 H   0  0
    8.2785    0.5857    2.3234 H   0  0
  1  2  1  0
  1  3  2  0
  2  4  2  0
  3  6  1  0
  4  7  1  0
  5  8  2  0
  5 35  1  0
  6  7  2  0
  6  9  1  0
  7 10  1  0
  8 30  1  0
  8 33  1  0
  9 11  1  0
  9 36  2  0
 10 12  1  0
 10 37  2  0
 11 12  2  0
 11 31  1  0
 12 43  1  0
 13 14  2  0
 13 31  1  0
 14 24  1  0
 14 25  1  0
 15 26  1  0
 15 38  2  0
 15 44  1  0
 16 27  1  0
 16 39  2  0
 16 45  1  0
 17 28  1  0
 17 40  2  0
 17 46  1  0
 18 29  1  0
 18 41  2  0
 18 47  1  0
 19 20  1  0
 19 21  1  0
 19 44  1  0
 20 22  1  0
 20 45  1  0
 21 23  1  0
 21 46  1  0
 22 32  1  0
 22 42  1  0
 23 35  1  0
 23 42  1  0
 30 43  1  0
 32 47  1  0
 33 34  2  0
 34 35  1  0
  1 48  1  0
  2 49  1  0
  3 50  1  0
  4 51  1  0
  5 52  1  0
 13 53  1  0
 19 54  1  0
 20 55  1  0
 21 56  1  0
 22 57  1  0
 23 58  1  0
 24 59  1  0
 24 60  1  0
 24 61  1  0
 25 62  1  0
 25 63  1  0
 25 64  1  0
 26 65  1  0
 26 66  1  0
 26 67  1  0
 27 68  1  0
 27 69  1  0
 27 70  1  0
 28 71  1  0
 28 72  1  0
 28 73  1  0
 29 74  1  0
 29 75  1  0
 29 76  1  0
 30 77  1  0
 30 78  1  0
 31 79  1  0
 31 80  1  0
 32 81  1  0
 32 82  1  0
M  END
> <Name>
BR010182

$$$$
BR010183
  SciTegic05062102053D

 82 85  0  0  1  0            999 V2000
   -4.0232    2.3464    9.4237 C   0  0
   -3.1458    1.4291    9.9970 C   0  0
   -3.5389    3.3328    8.5640 C   0  0
   -1.7819    1.4959    9.7123 C   0  0
    4.5249    3.3934    4.9625 C   0  0
   -2.1698    3.4023    8.2759 C   0  0
   -1.2938    2.4854    8.8495 C   0  0
    3.8320    2.9422    6.0577 C   0  0
   -1.6691    4.4477    7.3671 C   0  0
    0.1459    2.5490    8.5561 C   0  0
   -0.2034    4.4963    7.0696 C   0  0
    0.6355    3.6078    7.6340 C   0  0
    0.4766    6.8731    6.8489 C   0  0
    1.6090    7.6020    6.8799 C   0  0
   11.0384    6.2516    4.6358 C   0  0
   11.5615    2.5244    5.7386 C   0  0
    7.5807    6.6659    6.3465 C   0  0
   11.1987   -0.0478    2.2278 C   0  0
    9.2403    4.7201    4.5646 C   0  0  1  0  0  0
    9.8738    3.3530    4.3071 C   0  0  2  0  0  0
    7.8951    4.5789    5.2838 C   0  0  2  0  0  0
    8.8790    2.4485    3.5742 C   0  0  1  0  0  0
    7.0001    3.5635    4.5508 C   0  0  2  0  0  0
    1.7860    8.8955    7.6235 C   0  0
    2.8290    7.1481    6.1232 C   0  0
   11.9033    7.0314    5.5792 C   0  0
   11.7862    1.9200    7.0915 C   0  0
    6.8525    7.9697    6.2208 C   0  0
   12.4123    0.2047    1.3854 C   0  0
    2.3488    2.8522    6.2661 C   0  0
    0.2373    5.5819    6.1301 C   0  0
    9.4184    1.0437    3.3337 C   0  0
    4.7116    2.5439    7.0258 N   0  0
    5.9422    2.7358    6.5632 N   0  0
    5.8280    3.2454    5.3260 N   0  0
   -2.4436    5.2570    6.8673 O   0  0
    0.9267    1.7475    9.0577 O   0  0
   11.1475    6.2874    3.4176 O   0  0
   12.4538    2.7513    4.9327 O   0  0
    8.3379    6.3899    7.2671 O   0  0
   10.8263   -1.1597    2.5771 O   0  0
    7.6788    2.3193    4.3448 O   0  0
    1.9926    3.6388    7.3760 O   0  0
   10.1318    5.5141    5.3430 O   0  0
   10.2314    2.7720    5.5630 O   0  0
    7.2664    5.8602    5.2902 O   0  0
   10.5859    1.1376    2.5371 O   0  0
   -5.0851    2.2943    9.6462 H   0  0
   -3.5235    0.6613   10.6659 H   0  0
   -4.2436    4.0372    8.1305 H   0  0
   -1.1169    0.7694   10.1717 H   0  0
    4.2203    3.7865    4.0028 H   0  0
   -0.3925    7.2584    7.3818 H   0  0
    9.0980    5.2443    3.6111 H   0  0
   10.7993    3.4770    3.7330 H   0  0
    8.0619    4.2869    6.3282 H   0  0
    8.6224    2.8893    2.6022 H   0  0
    6.6268    3.9537    3.5973 H   0  0
    2.1423    8.6998    8.6402 H   0  0
    0.8701    9.4858    7.6966 H   0  0
    2.5263    9.5227    7.1149 H   0  0
    2.8565    7.5401    5.1009 H   0  0
    3.7382    7.4843    6.6324 H   0  0
    2.8496    6.0551    6.0593 H   0  0
   11.4517    8.0068    5.7760 H   0  0
   12.9036    7.1482    5.1548 H   0  0
   11.9883    6.4892    6.5255 H   0  0
   11.9636    2.7097    7.8256 H   0  0
   12.6338    1.2311    7.0538 H   0  0
   10.8957    1.3595    7.3907 H   0  0
    7.4611    8.6816    5.6577 H   0  0
    6.6203    8.3622    7.2141 H   0  0
    5.9140    7.8105    5.6818 H   0  0
   12.1386    0.1925    0.3276 H   0  0
   13.1733   -0.5511    1.5954 H   0  0
   12.8236    1.1889    1.6278 H   0  0
    1.8068    3.2119    5.3847 H   0  0
    2.0450    1.8157    6.4480 H   0  0
    1.1150    5.2364    5.5840 H   0  0
   -0.5501    5.7314    5.3871 H   0  0
    8.6742    0.4421    2.8106 H   0  0
    9.6691    0.5716    4.2843 H   0  0
  1  2  1  0
  1  3  2  0
  2  4  2  0
  3  6  1  0
  4  7  1  0
  5  8  2  0
  5 35  1  0
  6  7  2  0
  6  9  1  0
  7 10  1  0
  8 30  1  0
  8 33  1  0
  9 11  1  0
  9 36  2  0
 10 12  1  0
 10 37  2  0
 11 12  2  0
 11 31  1  0
 12 43  1  0
 13 14  2  0
 13 31  1  0
 14 24  1  0
 14 25  1  0
 15 26  1  0
 15 38  2  0
 15 44  1  0
 16 27  1  0
 16 39  2  0
 16 45  1  0
 17 28  1  0
 17 40  2  0
 17 46  1  0
 18 29  1  0
 18 41  2  0
 18 47  1  0
 19 20  1  0
 19 21  1  0
 19 44  1  0
 20 22  1  0
 20 45  1  0
 21 23  1  0
 21 46  1  0
 22 32  1  0
 22 42  1  0
 23 35  1  0
 23 42  1  0
 30 43  1  0
 32 47  1  0
 33 34  2  0
 34 35  1  0
  1 48  1  0
  2 49  1  0
  3 50  1  0
  4 51  1  0
  5 52  1  0
 13 53  1  0
 19 54  1  0
 20 55  1  0
 21 56  1  0
 22 57  1  0
 23 58  1  0
 24 59  1  0
 24 60  1  0
 24 61  1  0
 25 62  1  0
 25 63  1  0
 25 64  1  0
 26 65  1  0
 26 66  1  0
 26 67  1  0
 27 68  1  0
 27 69  1  0
 27 70  1  0
 28 71  1  0
 28 72  1  0
 28 73  1  0
 29 74  1  0
 29 75  1  0
 29 76  1  0
 30 77  1  0
 30 78  1  0
 31 79  1  0
 31 80  1  0
 32 81  1  0
 32 82  1  0
M  END
> <Name>
BR010183

$$$$
BR010184
  SciTegic05062102053D

 83 86  0  0  1  0            999 V2000
    7.3042    9.5574   -6.0280 C   0  0
    6.7035   10.0583   -4.8755 C   0  0
    7.0613    8.2428   -6.4272 C   0  0
    5.8586    9.2459   -4.1193 C   0  0
    2.3422    3.1218   -1.1572 C   0  0
    6.2130    7.4246   -5.6700 C   0  0
    5.6135    7.9260   -4.5185 C   0  0
    3.4678    3.0908   -1.9414 C   0  0
    5.9635    6.0383   -6.1005 C   0  0
    4.7223    7.0765   -3.7142 C   0  0
    5.0478    5.1868   -5.2785 C   0  0
    4.4775    5.6804   -4.1636 C   0  0
    3.5999    3.6842   -6.6225 C   0  0
    2.7652    2.6334   -6.7381 C   0  0
   -0.5382    1.1857   -3.6280 C   0  0
   -3.0936   -1.5031   -1.0678 C   0  0
   -1.6435   -2.9522    1.5664 C   0  0
    2.6450   -2.7448    2.8440 C   0  0
   -0.0767    0.4533   -1.2971 C   0  0  2  0  0  0
   -1.1372   -0.3085   -0.4937 C   0  0  2  0  0  0
   -0.5108   -1.0827    0.6686 C   0  0  1  0  0  0
    0.4069   -0.1764    1.4933 C   0  0  1  0  0  0
    0.8466    1.2561   -0.3616 C   0  0  2  0  0  0
    1.5396    2.5926   -7.6064 C   0  0
    3.0149    1.3714   -5.9557 C   0  0
   -1.2885    2.1903   -4.4380 C   0  0
   -3.6441   -2.4827   -2.0594 C   0  0
   -2.7933   -3.3397    2.4461 C   0  0
    3.4155   -3.7717    2.0708 C   0  0
    4.3183    4.2038   -2.3827 C   0  0
    4.8321    3.7872   -5.7784 C   0  0
    1.1390   -0.9415    2.5911 C   0  0
    3.7432    1.8002   -2.2991 N   0  0
    2.8145    1.0195   -1.7577 N   0  0
    1.9754    1.8139   -1.0735 N   0  0
   -0.7108    1.3223   -2.2646 N   0  0
    6.4975    5.5983   -7.1134 O   0  0
    4.1906    7.5075   -2.6967 O   0  0
    0.1485    0.3438   -4.1948 O   0  0
   -3.7380   -1.0307   -0.1412 O   0  0
   -0.8985   -3.7541    1.0195 O   0  0
    2.6741   -2.6408    4.0628 O   0  0
    1.4016    0.4061    0.6489 O   0  0
    3.6687    4.9418   -3.4212 O   0  0
   -1.7895   -1.2347   -1.3653 O   0  0
   -1.5670   -1.5911    1.4793 O   0  0
    1.9185   -1.9588    1.9889 O   0  0
    7.9625   10.1901   -6.6163 H   0  0
    6.8928   11.0819   -4.5655 H   0  0
    7.5428    7.8753   -7.3295 H   0  0
    5.4016    9.6591   -3.2240 H   0  0
    1.7971    3.9202   -0.6738 H   0  0
    3.3601    4.5896   -7.1798 H   0  0
    0.5145   -0.2657   -1.8797 H   0  0
   -1.9091    0.3784   -0.1228 H   0  0
    0.0445   -1.9400    0.2665 H   0  0
   -0.1722    0.6234    1.9731 H   0  0
    0.3340    2.1045    0.1061 H   0  0
    1.7966    2.2200   -8.6034 H   0  0
    1.0566    3.5648   -7.7255 H   0  0
    0.7928    1.9200   -7.1703 H   0  0
    2.5236    1.3825   -4.9769 H   0  0
    2.6387    0.5029   -6.5063 H   0  0
    4.0883    1.2377   -5.7858 H   0  0
   -0.6996    3.1020   -4.6278 H   0  0
   -1.5618    1.8075   -5.4344 H   0  0
   -2.2333    2.5428   -3.9941 H   0  0
   -4.0775   -1.9477   -2.9079 H   0  0
   -4.3945   -3.1153   -1.5785 H   0  0
   -2.8349   -3.1209   -2.4262 H   0  0
   -2.4571   -3.4176    3.4829 H   0  0
   -3.2174   -4.2878    2.1060 H   0  0
   -3.5694   -2.5710    2.3880 H   0  0
    2.8139   -4.6764    1.9539 H   0  0
    4.3535   -3.9962    2.5848 H   0  0
    3.6491   -3.3776    1.0775 H   0  0
    4.5489    4.9116   -1.5631 H   0  0
    5.2934    3.8567   -2.7754 H   0  0
    5.7296    3.4617   -6.3040 H   0  0
    4.7242    3.1282   -4.9133 H   0  0
    0.4189   -1.3952    3.2723 H   0  0
    1.7926   -0.2662    3.1434 H   0  0
   -1.3106    2.0673   -1.9254 H   0  0
  1  2  1  0
  1  3  2  0
  2  4  2  0
  3  6  1  0
  4  7  1  0
  5  8  2  0
  5 35  1  0
  6  7  2  0
  6  9  1  0
  7 10  1  0
  8 30  1  0
  8 33  1  0
  9 11  1  0
  9 37  2  0
 10 12  1  0
 10 38  2  0
 11 12  2  0
 11 31  1  0
 12 44  1  0
 13 14  2  0
 13 31  1  0
 14 24  1  0
 14 25  1  0
 15 26  1  0
 15 36  1  0
 15 39  2  0
 16 27  1  0
 16 40  2  0
 16 45  1  0
 17 28  1  0
 17 41  2  0
 17 46  1  0
 18 29  1  0
 18 42  2  0
 18 47  1  0
 19 20  1  0
 19 23  1  0
 19 36  1  0
 20 21  1  0
 20 45  1  0
 21 22  1  0
 21 46  1  0
 22 32  1  0
 22 43  1  0
 23 35  1  0
 23 43  1  0
 30 44  1  0
 32 47  1  0
 33 34  2  0
 34 35  1  0
  1 48  1  0
  2 49  1  0
  3 50  1  0
  4 51  1  0
  5 52  1  0
 13 53  1  0
 19 54  1  0
 20 55  1  0
 21 56  1  0
 22 57  1  0
 23 58  1  0
 24 59  1  0
 24 60  1  0
 24 61  1  0
 25 62  1  0
 25 63  1  0
 25 64  1  0
 26 65  1  0
 26 66  1  0
 26 67  1  0
 27 68  1  0
 27 69  1  0
 27 70  1  0
 28 71  1  0
 28 72  1  0
 28 73  1  0
 29 74  1  0
 29 75  1  0
 29 76  1  0
 30 77  1  0
 30 78  1  0
 31 79  1  0
 31 80  1  0
 32 81  1  0
 32 82  1  0
 36 83  1  0
M  END
> <Name>
BR010184

$$$$
BR010185
  SciTegic05062102053D

 76 79  0  0  1  0            999 V2000
   -3.2019    3.3536   11.0788 C   0  0
   -2.8642    2.0617   10.6824 C   0  0
   -2.3146    4.4069   10.8560 C   0  0
   -1.6383    1.8200   10.0623 C   0  0
    4.7507    4.0406    5.5695 C   0  0
   -1.0828    4.1673   10.2334 C   0  0
   -0.7462    2.8761    9.8378 C   0  0
    3.9393    3.2538    6.3478 C   0  0
   -0.1534    5.2865   10.0030 C   0  0
    0.5446    2.6115    9.1846 C   0  0
    1.1530    5.0058    9.3295 C   0  0
    1.4705    3.7523    8.9559 C   0  0
    2.8855    6.4760   10.3282 C   0  0
    4.2288    6.5384   10.4047 C   0  0
   10.6483    6.7482    4.2514 C   0  0
    7.6326    7.5270    1.8669 C   0  0
    8.4743    5.5305    7.2242 C   0  0
    8.8046    5.2747    4.1354 C   0  0  2  0  0  0
    8.2596    5.4120    2.7139 C   0  0  1  0  0  0
    7.7158    4.8095    5.1056 C   0  0  1  0  0  0
    7.5814    4.1056    2.2916 C   0  0  2  0  0  0
    7.0001    3.5635    4.5508 C   0  0  1  0  0  0
    5.0124    6.8282   11.6536 C   0  0
    5.0736    6.3207    9.1775 C   0  0
   11.0668    8.0965    4.7545 C   0  0
    6.5595    8.5706    1.9418 C   0  0
    9.1450    5.0524    8.4762 C   0  0
    6.9577    4.1813    0.9033 C   0  0
    2.5966    3.5731    6.9366 C   0  0
    2.0487    6.1928    9.1195 C   0  0
    4.5321    2.0378    6.5466 N   0  0
    5.6987    2.0436    5.9111 N   0  0
    5.8280    3.2454    5.3260 N   0  0
   -0.4516    6.4224   10.3574 O   0  0
    0.8521    1.4774    8.8341 O   0  0
   11.3902    5.9783    3.6564 O   0  0
    8.6314    7.6203    1.1663 O   0  0
    8.1086    6.6836    7.0403 O   0  0
    6.5347    3.7799    3.2132 O   0  0
    2.6736    3.4714    8.3370 O   0  0
    9.3358    6.5277    4.5590 O   0  0
    7.3158    6.4849    2.6885 O   0  0
    8.3431    4.4922    6.3477 O   0  0
   -4.1563    3.5413   11.5621 H   0  0
   -3.5556    1.2423   10.8558 H   0  0
   -2.6009    5.4053   11.1756 H   0  0
   -1.3971    0.8037    9.7621 H   0  0
    4.6603    5.0468    5.1852 H   0  0
    2.3133    6.6759   11.2340 H   0  0
    9.6368    4.5593    4.1413 H   0  0
    9.0730    5.6798    2.0297 H   0  0
    7.0095    5.6285    5.2914 H   0  0
    8.3142    3.2884    2.2950 H   0  0
    7.6334    2.6702    4.5913 H   0  0
    5.2434    5.8954   12.1784 H   0  0
    4.4919    7.4865   12.3524 H   0  0
    5.9566    7.3217   11.3984 H   0  0
    5.2734    7.2521    8.6371 H   0  0
    6.0387    5.8833    9.4538 H   0  0
    4.5676    5.6388    8.4860 H   0  0
   10.8896    8.8511    3.9843 H   0  0
   12.1221    8.0754    5.0381 H   0  0
   10.4747    8.3538    5.6375 H   0  0
    5.7946    8.3708    1.1874 H   0  0
    6.9955    9.5621    1.7956 H   0  0
    6.0913    8.5390    2.9299 H   0  0
    8.3937    4.7077    9.1910 H   0  0
    9.7454    5.8581    8.9063 H   0  0
    9.8074    4.2156    8.2359 H   0  0
    6.2234    4.9859    0.8682 H   0  0
    6.4627    3.2398    0.6656 H   0  0
    7.7296    4.3735    0.1582 H   0  0
    2.2828    4.5878    6.6690 H   0  0
    1.8358    2.8772    6.5672 H   0  0
    2.6472    6.0249    8.2243 H   0  0
    1.4203    7.0627    8.9127 H   0  0
  1  2  1  0
  1  3  2  0
  2  4  2  0
  3  6  1  0
  4  7  1  0
  5  8  2  0
  5 33  1  0
  6  7  2  0
  6  9  1  0
  7 10  1  0
  8 29  1  0
  8 31  1  0
  9 11  1  0
  9 34  2  0
 10 12  1  0
 10 35  2  0
 11 12  2  0
 11 30  1  0
 12 40  1  0
 13 14  2  0
 13 30  1  0
 14 23  1  0
 14 24  1  0
 15 25  1  0
 15 36  2  0
 15 41  1  0
 16 26  1  0
 16 37  2  0
 16 42  1  0
 17 27  1  0
 17 38  2  0
 17 43  1  0
 18 19  1  0
 18 20  1  0
 18 41  1  0
 19 21  1  0
 19 42  1  0
 20 22  1  0
 20 43  1  0
 21 28  1  0
 21 39  1  0
 22 33  1  0
 22 39  1  0
 29 40  1  0
 31 32  2  0
 32 33  1  0
  1 44  1  0
  2 45  1  0
  3 46  1  0
  4 47  1  0
  5 48  1  0
 13 49  1  0
 18 50  1  0
 19 51  1  0
 20 52  1  0
 21 53  1  0
 22 54  1  0
 23 55  1  0
 23 56  1  0
 23 57  1  0
 24 58  1  0
 24 59  1  0
 24 60  1  0
 25 61  1  0
 25 62  1  0
 25 63  1  0
 26 64  1  0
 26 65  1  0
 26 66  1  0
 27 67  1  0
 27 68  1  0
 27 69  1  0
 28 70  1  0
 28 71  1  0
 28 72  1  0
 29 73  1  0
 29 74  1  0
 30 75  1  0
 30 76  1  0
M  END
> <Name>
BR010185

$$$$
BR010186
  SciTegic05062102053D

 62 65  0  0  1  0            999 V2000
   -4.3745    4.2481    8.2692 C   0  0
   -3.8154    5.5077    8.0675 C   0  0
   -3.6397    3.1012    7.9670 C   0  0
   -2.5201    5.6237    7.5630 C   0  0
    4.8005    2.2330    6.6633 C   0  0
   -2.3386    3.2144    7.4604 C   0  0
   -1.7809    4.4736    7.2591 C   0  0
    3.9393    3.2538    6.3478 C   0  0
   -1.5717    1.9973    7.1447 C   0  0
   -0.4165    4.6056    6.7263 C   0  0
   -0.1813    2.1448    6.6116 C   0  0
    0.3463    3.3676    6.4157 C   0  0
    0.2212    0.3429    4.9528 C   0  0
    1.0769    0.0743    3.9478 C   0  0
    8.6278    0.4644    4.1404 C   0  0  1  0  0  0
    9.7289    1.3899    4.6607 C   0  0  1  0  0  0
    7.2454    1.0998    4.3023 C   0  0  2  0  0  0
    9.3974    1.8863    6.0714 C   0  0  1  0  0  0
    7.0582    1.6496    5.7213 C   0  0  2  0  0  0
    0.6864   -0.4493    2.5947 C   0  0
    2.5570    0.2825    4.1303 C   0  0
    2.5966    3.5731    6.9366 C   0  0
    0.5458    0.8640    6.3182 C   0  0
   10.4181    2.8986    6.5824 C   0  0
    4.4810    4.0214    5.3543 N   0  0
    5.6633    3.5046    5.0380 N   0  0
    5.8529    2.4324    5.8238 N   0  0
   -2.0684    0.8893    7.3190 O   0  0
    0.0838    5.7101    6.5430 O   0  0
    8.1230    2.5313    6.0818 O   0  0
    8.8674    0.2115    2.7546 O   0  0
   10.9533    0.6602    4.6658 O   0  0
    6.2699    0.0925    4.0374 O   0  0
   10.0323    3.3113    7.8807 O   0  0
    1.6264    3.5253    5.9199 O   0  0
   -5.3834    4.1582    8.6616 H   0  0
   -4.3879    6.4001    8.3033 H   0  0
   -4.0988    2.1302    8.1322 H   0  0
   -2.1054    6.6171    7.4140 H   0  0
    4.7596    1.4226    7.3773 H   0  0
   -0.8375    0.1431    4.7881 H   0  0
    8.6736   -0.5087    4.6453 H   0  0
    9.8441    2.2324    3.9668 H   0  0
    7.1182    1.8903    3.5515 H   0  0
    9.3806    1.0459    6.7781 H   0  0
    6.9539    0.8518    6.4654 H   0  0
    0.4874    0.3832    1.9118 H   0  0
   -0.1994   -1.0878    2.6128 H   0  0
    1.5006   -1.0504    2.1754 H   0  0
    3.0604   -0.6111    4.5142 H   0  0
    3.0242    0.5423    3.1747 H   0  0
    2.7399    1.0961    4.8399 H   0  0
    2.3305    2.8536    7.7184 H   0  0
    2.5978    4.5724    7.3853 H   0  0
    1.6137    1.0274    6.4623 H   0  0
    0.2435    0.1216    7.0611 H   0  0
   10.4451    3.7652    5.9219 H   0  0
   11.4059    2.4402    6.6285 H   0  0
    8.8449    1.0731    2.3125 H   0  0
   10.8193   -0.0997    5.2531 H   0  0
    6.4196   -0.6118    4.6862 H   0  0
   10.6955    3.9542    8.1847 H   0  0
  1  2  1  0
  1  3  2  0
  2  4  2  0
  3  6  1  0
  4  7  1  0
  5  8  2  0
  5 27  1  0
  6  7  2  0
  6  9  1  0
  7 10  1  0
  8 22  1  0
  8 25  1  0
  9 11  1  0
  9 28  2  0
 10 12  1  0
 10 29  2  0
 11 12  2  0
 11 23  1  0
 12 35  1  0
 13 14  2  0
 13 23  1  0
 14 20  1  0
 14 21  1  0
 15 16  1  0
 15 17  1  0
 15 31  1  0
 16 18  1  0
 16 32  1  0
 17 19  1  0
 17 33  1  0
 18 24  1  0
 18 30  1  0
 19 27  1  0
 19 30  1  0
 22 35  1  0
 24 34  1  0
 25 26  2  0
 26 27  1  0
  1 36  1  0
  2 37  1  0
  3 38  1  0
  4 39  1  0
  5 40  1  0
 13 41  1  0
 15 42  1  0
 16 43  1  0
 17 44  1  0
 18 45  1  0
 19 46  1  0
 20 47  1  0
 20 48  1  0
 20 49  1  0
 21 50  1  0
 21 51  1  0
 21 52  1  0
 22 53  1  0
 22 54  1  0
 23 55  1  0
 23 56  1  0
 24 57  1  0
 24 58  1  0
 31 59  1  0
 32 60  1  0
 33 61  1  0
 34 62  1  0
M  END
> <Name>
BR010186

$$$$
BR010187
  SciTegic05062102053D

 61 64  0  0  1  0            999 V2000
    2.8892   -1.1351    1.5910 C   0  0
    2.2008   -1.6934    2.6655 C   0  0
    3.1891    0.2274    1.5858 C   0  0
    1.8103   -0.8904    3.7372 C   0  0
    2.6084    5.5647    8.5983 C   0  0
    2.7986    1.0363    2.6607 C   0  0
    2.1105    0.4776    3.7338 C   0  0
    2.0808    4.4148    8.0666 C   0  0
    3.1202    2.4736    2.6450 C   0  0
    1.6937    1.3165    4.8674 C   0  0
    2.6985    3.3148    3.8085 C   0  0
    2.0288    2.7650    4.8386 C   0  0
    2.0476    5.5563    2.9644 C   0  0
    1.3424    6.6236    3.3861 C   0  0
    1.6475    7.7523   12.8939 C   0  0  2  0  0  0
    0.4322    8.5893   12.4947 C   0  0  1  0  0  0
    1.8288    6.5544   11.9583 C   0  0  1  0  0  0
    0.5343    8.9772   11.0169 C   0  0  2  0  0  0
    1.7983    7.0129   10.4882 C   0  0  1  0  0  0
    0.3318    7.3731    2.5649 C   0  0
    1.5407    7.1679    4.7760 C   0  0
   -0.6731    9.7658   10.5245 C   0  0
    2.5966    3.5731    6.9366 C   0  0
    3.0647    4.7691    3.7306 C   0  0
    0.9351    4.0831    8.7351 N   0  0
    0.7307    4.9999    9.6747 N   0  0
    1.7350    5.8874    9.5908 N   0  0
    3.7226    2.9633    1.6953 O   0  0
    1.0851    0.8350    5.8169 O   0  0
    0.6331    7.7985   10.2094 O   0  0
    1.4901    7.3051   14.2381 O   0  0
   -0.7483    7.8154   12.7182 O   0  0
    3.0919    5.9578   12.2513 O   0  0
    1.6264    3.5253    5.9199 O   0  0
    3.1926   -1.7606    0.7564 H   0  0
    1.9680   -2.7542    2.6691 H   0  0
    3.7261    0.6390    0.7354 H   0  0
    1.2742   -1.3487    4.5640 H   0  0
    3.4863    6.1524    8.3698 H   0  0
    1.8979    5.2191    1.9389 H   0  0
    2.5476    8.3796   12.8719 H   0  0
    0.3654    9.4749   13.1371 H   0  0
    1.0539    5.8045   12.1609 H   0  0
    1.4326    9.5866   10.8537 H   0  0
    2.7026    7.5646   10.2079 H   0  0
   -0.6629    6.9360    2.7010 H   0  0
    0.5538    7.3757    1.4956 H   0  0
    0.2929    8.4210    2.8821 H   0  0
    2.3215    7.9347    4.8170 H   0  0
    0.6127    7.6188    5.1428 H   0  0
    1.8307    6.3631    5.4596 H   0  0
   -1.5833    9.1851   10.6736 H   0  0
   -0.5650    9.9882    9.4630 H   0  0
   -0.7564   10.7023   11.0758 H   0  0
    3.5225    3.9916    6.5274 H   0  0
    2.8099    2.5544    7.2779 H   0  0
    3.2131    5.1467    4.7422 H   0  0
    4.0301    4.8518    3.2250 H   0  0
    1.4207    8.1011   14.7875 H   0  0
   -1.4943    8.3747   12.4557 H   0  0
    3.7610    6.6408   12.0928 H   0  0
  1  2  1  0
  1  3  2  0
  2  4  2  0
  3  6  1  0
  4  7  1  0
  5  8  2  0
  5 27  1  0
  6  7  2  0
  6  9  1  0
  7 10  1  0
  8 23  1  0
  8 25  1  0
  9 11  1  0
  9 28  2  0
 10 12  1  0
 10 29  2  0
 11 12  2  0
 11 24  1  0
 12 34  1  0
 13 14  2  0
 13 24  1  0
 14 20  1  0
 14 21  1  0
 15 16  1  0
 15 17  1  0
 15 31  1  0
 16 18  1  0
 16 32  1  0
 17 19  1  0
 17 33  1  0
 18 22  1  0
 18 30  1  0
 19 27  1  0
 19 30  1  0
 23 34  1  0
 25 26  2  0
 26 27  1  0
  1 35  1  0
  2 36  1  0
  3 37  1  0
  4 38  1  0
  5 39  1  0
 13 40  1  0
 15 41  1  0
 16 42  1  0
 17 43  1  0
 18 44  1  0
 19 45  1  0
 20 46  1  0
 20 47  1  0
 20 48  1  0
 21 49  1  0
 21 50  1  0
 21 51  1  0
 22 52  1  0
 22 53  1  0
 22 54  1  0
 23 55  1  0
 23 56  1  0
 24 57  1  0
 24 58  1  0
 31 59  1  0
 32 60  1  0
 33 61  1  0
M  END
> <Name>
BR010187

$$$$
BR010188
  SciTegic05062102053D

 18 19  0  0  0  0            999 V2000
   -0.1037    3.0292   -0.1669 C   0  0
    1.1672    2.7230    0.3136 C   0  0
   -1.0051    2.0053   -0.4553 C   0  0
    1.5397    1.3919    0.5076 C   0  0
   -0.6305    0.6703   -0.2609 C   0  0
    0.6381    0.3585    0.2196 C   0  0
   -1.1341   -1.7923   -0.3415 C   0  0
   -1.5815   -0.4036   -0.5658 C   0  0
    1.0475   -1.0471    0.4308 C   0  0
    0.0738   -2.1628    0.1194 C   0  0
    0.5170   -3.3259    0.3325 O   0  5
   -2.7058   -0.1691   -0.9908 O   0  0
    2.1775   -1.2774    0.8576 O   0  0
   -0.3927    4.0653   -0.3173 H   0  0
    1.8695    3.5206    0.5382 H   0  0
   -1.9909    2.2658   -0.8312 H   0  0
    2.5371    1.1833    0.8857 H   0  0
   -1.8763   -2.5515   -0.5834 H   0  0
  1  2  1  0
  1  3  2  0
  2  4  2  0
  3  5  1  0
  4  6  1  0
  5  6  2  0
  5  8  1  0
  6  9  1  0
  7  8  1  0
  7 10  2  0
  8 12  2  0
  9 10  1  0
  9 13  2  0
 10 11  1  0
  1 14  1  0
  2 15  1  0
  3 16  1  0
  4 17  1  0
  7 18  1  0
M  CHG  1  11  -1
M  END
> <Name>
BR010188

$$$$
BR010189
  SciTegic05062102053D

 61 65  0  0  1  0            999 V2000
   -0.0702    0.1749   -0.3125 C   0  0
    0.7338    0.5107    0.6927 C   0  0
    0.7621    0.1334   -1.5159 C   0  0
    2.1207    0.7081    0.2245 C   0  0
   -1.0820    1.2151    2.2363 C   0  0
   -3.2466   -3.6532    5.0129 C   0  0
   -2.8848   -2.6181    3.9531 C   0  0
    0.4631   -1.2929    5.4880 C   0  0
   -2.0251   -1.1983    8.4499 C   0  0
    0.7496   -0.1971    4.4639 C   0  0
   -1.0951   -2.3229    7.9984 C   0  0
   -1.9018    0.1576    2.9828 C   0  0
   -3.8183   -2.0909    6.9186 C   0  0
    0.3559    0.6842    2.1366 C   0  0  1  0  0  0
   -2.8716   -3.2162    6.4361 C   0  0  2  0  0  0
   -1.0104   -1.7420    5.4577 C   0  0  1  0  0  0
   -1.4060   -2.1877    4.0187 C   0  0  2  0  0  0
   -3.4906   -1.6011    8.3261 C   0  0  1  0  0  0
    0.3955   -0.6032    3.0100 C   0  0  2  0  0  0
   -1.3618   -2.8274    6.5490 C   0  0  1  0  0  0
   -1.0633   -1.1304    2.9307 C   0  0  2  0  0  0
    1.4422   -1.6277    2.5215 C   0  0
   -0.4902   -4.0994    6.3743 C   0  0
    0.3630   -0.1408   -2.6345 O   0  0
    2.0471    0.4496   -1.1815 O   0  0
   -3.7675   -2.6305    9.2734 O   0  0
   -1.3106   -1.7117    1.6417 O   0  0
   -1.1260   -0.0323   -0.2825 H   0  0
    2.4710    1.7325    0.3807 H   0  0
    2.8188    0.0003    0.6809 H   0  0
   -1.5303    1.4193    1.2565 H   0  0
   -1.1072    2.1594    2.7932 H   0  0
   -4.3219   -3.8635    4.9579 H   0  0
   -2.7468   -4.5991    4.7735 H   0  0
   -3.1061   -3.0422    2.9662 H   0  0
   -3.5383   -1.7459    4.0625 H   0  0
    1.1326   -2.1405    5.3133 H   0  0
    0.7190   -0.8915    6.4737 H   0  0
   -1.7970   -0.9612    9.4962 H   0  0
   -1.8333   -0.2916    7.8659 H   0  0
    0.1938    0.7014    4.7614 H   0  0
    1.8100    0.0807    4.5257 H   0  0
   -0.0554   -2.0012    8.1201 H   0  0
   -1.2161   -3.1633    8.6966 H   0  0
   -2.0731    0.4993    4.0084 H   0  0
   -2.8809    0.0377    2.5056 H   0  0
   -3.7850   -1.2346    6.2367 H   0  0
   -4.8479   -2.4703    6.8994 H   0  0
    1.0440    1.4388    2.5396 H   0  0
   -3.0532   -4.0806    7.0912 H   0  0
   -1.6044   -0.8504    5.6898 H   0  0
   -0.8212   -3.0835    3.7712 H   0  0
   -4.1263   -0.7462    8.5816 H   0  0
    1.2036   -1.9183    1.5056 H   0  0
    1.4155   -2.4951    3.1698 H   0  0
    2.4241   -1.1714    2.5546 H   0  0
   -0.6430   -4.4875    5.3774 H   0  0
   -0.7935   -4.8288    7.1118 H   0  0
    0.5464   -3.8291    6.5174 H   0  0
   -4.7034   -2.8594    9.1655 H   0  0
   -0.7832   -2.5215    1.6095 H   0  0
  1  2  2  0
  1  3  1  0
  2  4  1  0
  2 14  1  0
  3 24  2  0
  3 25  1  0
  4 25  1  0
  5 12  1  0
  5 14  1  0
  6  7  1  0
  6 15  1  0
  7 17  1  0
  8 10  1  0
  8 16  1  0
  9 11  1  0
  9 18  1  0
 10 19  1  0
 11 20  1  0
 12 21  1  0
 13 15  1  0
 13 18  1  0
 14 19  1  0
 15 20  1  0
 16 17  1  0
 16 20  1  0
 17 21  1  0
 18 26  1  0
 19 21  1  0
 19 22  1  0
 20 23  1  0
 21 27  1  0
  1 28  1  0
  4 29  1  0
  4 30  1  0
  5 31  1  0
  5 32  1  0
  6 33  1  0
  6 34  1  0
  7 35  1  0
  7 36  1  0
  8 37  1  0
  8 38  1  0
  9 39  1  0
  9 40  1  0
 10 41  1  0
 10 42  1  0
 11 43  1  0
 11 44  1  0
 12 45  1  0
 12 46  1  0
 13 47  1  0
 13 48  1  0
 14 49  1  0
 15 50  1  0
 16 51  1  0
 17 52  1  0
 18 53  1  0
 22 54  1  0
 22 55  1  0
 22 56  1  0
 23 57  1  0
 23 58  1  0
 23 59  1  0
 26 60  1  0
 27 61  1  0
M  END
> <Name>
BR010189

$$$$
BR010190
  SciTegic05062102053D

 60 62  0  0  1  0            999 V2000
    1.9564   -5.0757   -8.7238 C   0  0
    0.8711   -5.7842   -8.2114 C   0  0
    2.6583   -4.1856   -7.9103 C   0  0
    0.4823   -5.6060   -6.8832 C   0  0
    2.2712   -4.0043   -6.5777 C   0  0
    1.1835   -4.7139   -6.0636 C   0  0
    2.5736   -2.9015   -4.3255 C   0  0
    3.0188   -3.0612   -5.7250 C   0  0
    0.7644   -4.5323   -4.6596 C   0  0
    1.5350   -3.5763   -3.8272 C   0  0
   -2.9489   -2.3852    0.9259 C   0  0
   -1.9601    1.2972    0.6303 C   0  0
   -0.5781   -4.9802   -0.7549 C   0  0
    2.0851    2.3919   -3.8973 C   0  0
   -1.4240   -1.4908   -0.6420 C   0  0  1  0  0  0
   -0.7391   -0.1332   -0.8004 C   0  0  1  0  0  0
   -0.4804   -2.6337   -1.0165 C   0  0  2  0  0  0
   -0.0643   -0.0218   -2.1696 C   0  0  1  0  0  0
    0.2035   -2.3731   -2.3586 C   0  0  1  0  0  0
   -3.2456   -2.4561    2.3933 C   0  0
   -3.0176    2.3592    0.6347 C   0  0
   -1.4975   -6.1567   -0.8841 C   0  0
    2.6512    2.2726   -5.2799 C   0  0
    0.7314    1.2714   -2.3175 C   0  0
    3.9765   -2.4271   -6.1506 O   0  0
   -0.1870   -5.1486   -4.1944 O   0  0
   -3.6287   -2.9235    0.0626 O   0  0
   -1.4018    0.8821    1.6368 O   0  0
    0.5888   -5.0588   -0.3953 O   0  0
    2.2827    3.3451   -3.1560 O   0  0
    0.8515   -1.1032   -2.3511 O   0  0
    1.1656   -3.4063   -2.5667 O   0  0
   -1.8241   -1.6404    0.7212 O   0  0
   -1.7290    0.8812   -0.6501 O   0  0
   -1.2427   -3.8373   -1.0959 O   0  0
    1.3285    1.2888   -3.6013 O   0  0
    2.2564   -5.2167   -9.7581 H   0  0
    0.3267   -6.4765   -8.8471 H   0  0
    3.5010   -3.6446   -8.3322 H   0  0
   -0.3671   -6.1699   -6.5072 H   0  0
    3.1322   -2.2040   -3.7096 H   0  0
   -2.3429   -1.5299   -1.2405 H   0  0
   -0.0062   -0.0080    0.0071 H   0  0
    0.2643   -2.7781   -0.2236 H   0  0
   -0.8146   -0.0439   -2.9711 H   0  0
   -0.5186   -2.4258   -3.1832 H   0  0
   -2.7433   -3.3218    2.8318 H   0  0
   -4.3255   -2.5163    2.5509 H   0  0
   -2.8728   -1.5517    2.8827 H   0  0
   -2.5548    3.3438    0.5316 H   0  0
   -3.5980    2.3008    1.5589 H   0  0
   -3.6935    2.2014   -0.2108 H   0  0
   -2.0182   -6.3261    0.0616 H   0  0
   -0.9275   -7.0428   -1.1746 H   0  0
   -2.2413   -5.9522   -1.6598 H   0  0
    3.6230    1.7743   -5.2410 H   0  0
    2.7441    3.2643   -5.7296 H   0  0
    1.9763    1.6727   -5.8974 H   0  0
    1.5109    1.3176   -1.5570 H   0  0
    0.0680    2.1303   -2.2170 H   0  0
  1  2  1  0
  1  3  2  0
  2  4  2  0
  3  5  1  0
  4  6  1  0
  5  6  2  0
  5  8  1  0
  6  9  1  0
  7  8  1  0
  7 10  2  0
  8 25  2  0
  9 10  1  0
  9 26  2  0
 10 32  1  0
 11 20  1  0
 11 27  2  0
 11 33  1  0
 12 21  1  0
 12 28  2  0
 12 34  1  0
 13 22  1  0
 13 29  2  0
 13 35  1  0
 14 23  1  0
 14 30  2  0
 14 36  1  0
 15 16  1  0
 15 17  1  0
 15 33  1  0
 16 18  1  0
 16 34  1  0
 17 19  1  0
 17 35  1  0
 18 24  1  0
 18 31  1  0
 19 31  1  0
 19 32  1  0
 24 36  1  0
  1 37  1  0
  2 38  1  0
  3 39  1  0
  4 40  1  0
  7 41  1  0
 15 42  1  0
 16 43  1  0
 17 44  1  0
 18 45  1  0
 19 46  1  0
 20 47  1  0
 20 48  1  0
 20 49  1  0
 21 50  1  0
 21 51  1  0
 21 52  1  0
 22 53  1  0
 22 54  1  0
 22 55  1  0
 23 56  1  0
 23 57  1  0
 23 58  1  0
 24 59  1  0
 24 60  1  0
M  END
> <Name>
BR010190

$$$$
BR010191
  SciTegic05062102053D

 60 62  0  0  1  0            999 V2000
    7.7857   -4.5247   -5.4447 C   0  0
    7.9257   -3.1602   -5.6918 C   0  0
    6.5495   -5.0428   -5.0574 C   0  0
    6.8302   -2.3073   -5.5528 C   0  0
    5.4486   -4.1902   -4.9170 C   0  0
    5.5882   -2.8227   -5.1643 C   0  0
    3.0122   -3.8087   -4.3706 C   0  0
    4.1455   -4.7465   -4.5070 C   0  0
    4.4351   -1.9119   -5.0200 C   0  0
    3.1381   -2.5006   -4.6054 C   0  0
   -0.1514    2.7277   -1.1123 C   0  0
   -2.1676   -0.5982   -0.6712 C   0  0
    1.6033    1.0954   -5.3880 C   0  0
   -0.0513   -3.2307    2.0855 C   0  0
    0.7233    0.6893   -1.9268 C   0  0  1  0  0  0
    0.1626   -0.3970   -1.0083 C   0  0  2  0  0  0
    1.0679    0.1207   -3.3030 C   0  0  2  0  0  0
    1.1199   -1.5934   -0.9760 C   0  0  1  0  0  0
    1.9375   -1.1315   -3.1696 C   0  0  1  0  0  0
   -1.2083    3.7587   -1.3695 C   0  0
   -3.4304   -1.0693   -1.3265 C   0  0
    2.4078    2.1903   -6.0204 C   0  0
   -0.1861   -2.6172    3.4462 C   0  0
    0.5950   -2.7518   -0.1363 C   0  0
    3.9958   -5.9417   -4.2847 O   0  0
    4.5421   -0.7103   -5.2346 O   0  0
    0.6512    2.7844   -0.1904 O   0  0
   -2.1187   -0.1064    0.4481 O   0  0
    0.8996    0.3135   -6.0130 O   0  0
   -0.3267   -4.3949    1.8285 O   0  0
    1.3267   -2.0883   -2.3049 O   0  0
    2.0984   -1.6910   -4.4725 O   0  0
   -0.2303    1.7405   -2.0532 O   0  0
   -1.1121   -0.8043   -1.5106 O   0  0
    1.7818    1.1166   -4.0347 O   0  0
    0.4192   -2.3021    1.1952 O   0  0
    8.6405   -5.1860   -5.5538 H   0  0
    8.8894   -2.7600   -5.9933 H   0  0
    6.4649   -6.1098   -4.8703 H   0  0
    6.9648   -1.2474   -5.7512 H   0  0
    2.0595   -4.2314   -4.0678 H   0  0
    1.6205    1.1273   -1.4713 H   0  0
   -0.0004    0.0130   -0.0050 H   0  0
    0.1516   -0.0940   -3.8664 H   0  0
    2.0891   -1.2829   -0.5645 H   0  0
    2.9371   -0.8744   -2.7968 H   0  0
   -0.8169    4.5334   -2.0335 H   0  0
   -1.5403    4.1936   -0.4233 H   0  0
   -2.0667    3.2849   -1.8544 H   0  0
   -3.8817   -0.2512   -1.8932 H   0  0
   -4.1244   -1.4424   -0.5691 H   0  0
   -3.1981   -1.8852   -2.0171 H   0  0
    1.8094    3.1026   -6.0813 H   0  0
    2.7399    1.8799   -7.0143 H   0  0
    3.2904    2.3927   -5.4066 H   0  0
    0.7455   -2.7423    4.0034 H   0  0
   -1.0200   -3.0794    3.9806 H   0  0
   -0.3897   -1.5473    3.3430 H   0  0
    1.3108   -3.5747   -0.1460 H   0  0
   -0.3628   -3.0945   -0.5293 H   0  0
  1  2  1  0
  1  3  2  0
  2  4  2  0
  3  5  1  0
  4  6  1  0
  5  6  2  0
  5  8  1  0
  6  9  1  0
  7  8  1  0
  7 10  2  0
  8 25  2  0
  9 10  1  0
  9 26  2  0
 10 32  1  0
 11 20  1  0
 11 27  2  0
 11 33  1  0
 12 21  1  0
 12 28  2  0
 12 34  1  0
 13 22  1  0
 13 29  2  0
 13 35  1  0
 14 23  1  0
 14 30  2  0
 14 36  1  0
 15 16  1  0
 15 17  1  0
 15 33  1  0
 16 18  1  0
 16 34  1  0
 17 19  1  0
 17 35  1  0
 18 24  1  0
 18 31  1  0
 19 31  1  0
 19 32  1  0
 24 36  1  0
  1 37  1  0
  2 38  1  0
  3 39  1  0
  4 40  1  0
  7 41  1  0
 15 42  1  0
 16 43  1  0
 17 44  1  0
 18 45  1  0
 19 46  1  0
 20 47  1  0
 20 48  1  0
 20 49  1  0
 21 50  1  0
 21 51  1  0
 21 52  1  0
 22 53  1  0
 22 54  1  0
 22 55  1  0
 23 56  1  0
 23 57  1  0
 23 58  1  0
 24 59  1  0
 24 60  1  0
M  END
> <Name>
BR010191

$$$$
BR010192
  SciTegic05062102053D

 61 63  0  0  1  0            999 V2000
    4.6554   -0.6533   -8.0785 C   0  0
    5.0093   -1.5446   -7.0671 C   0  0
    4.0225    0.5491   -7.7621 C   0  0
    4.7319   -1.2377   -5.7345 C   0  0
    3.7428    0.8602   -6.4265 C   0  0
    4.0970   -0.0326   -5.4126 C   0  0
    2.7972    2.4188   -4.6782 C   0  0
    3.0733    2.1336   -6.1011 C   0  0
    3.8079    0.2829   -3.9994 C   0  0
    3.1329    1.5704   -3.7037 C   0  0
    3.3045    0.5144    1.1875 C   0  0
   -0.5547    0.5239    2.2914 C   0  0
   -2.8559    2.3188    0.6646 C   0  0
   -2.3582    3.5959   -4.8424 C   0  0
    1.6326    1.3683   -0.4429 C   0  0  2  0  0  0
    0.2477    1.0609    0.1346 C   0  0  2  0  0  0
   -0.8328    1.9416   -0.4968 C   0  0  1  0  0  0
   -0.7278    1.9143   -2.0238 C   0  0  1  0  0  0
    1.5960    1.4133   -1.9744 C   0  0  1  0  0  0
    4.2379   -0.6186    1.4587 C   0  0
   -0.4179    0.8876    3.7388 C   0  0
   -4.1568    1.6725    1.0336 C   0  0
   -2.0667    3.4075   -6.3003 C   0  0
   -1.7127    2.8712   -2.6878 C   0  0
    2.5937    0.3847    0.0115 N   0  0
    2.7527    2.9342   -6.9710 O   0  0
    4.1137   -0.4899   -3.0990 O   0  0
    3.2305    1.4407    1.9864 O   0  0
   -1.3060   -0.3458    1.8716 O   0  0
   -2.5388    3.4549    0.9897 O   0  0
   -3.2063    4.3627   -4.4067 O   0  0
    0.5845    2.3138   -2.4232 O   0  0
    2.8687    1.8615   -2.4389 O   0  0
    0.2770    1.3041    1.5425 O   0  0
   -2.1032    1.4519   -0.0757 O   0  0
   -1.5421    2.7917   -4.0912 O   0  0
    4.8727   -0.8952   -9.1149 H   0  0
    5.5020   -2.4799   -7.3167 H   0  0
    3.7562    1.2280   -8.5677 H   0  0
    5.0177   -1.9489   -4.9642 H   0  0
    2.3037    3.3589   -4.4532 H   0  0
    1.9910    2.3282   -0.0497 H   0  0
   -0.0001    0.0000    0.0001 H   0  0
   -0.7252    2.9653   -0.1157 H   0  0
   -0.9332    0.9060   -2.4066 H   0  0
    1.4162    0.4154   -2.3950 H   0  0
    5.2403   -0.4484    1.0342 H   0  0
    4.4016   -0.7798    2.5364 H   0  0
    3.9187   -1.5968    1.0649 H   0  0
    0.3644    0.2808    4.2014 H   0  0
   -1.3726    0.7409    4.2500 H   0  0
   -0.1370    1.9415    3.8229 H   0  0
   -4.9045    1.8779    0.2636 H   0  0
   -4.4924    2.0429    2.0055 H   0  0
   -4.0168    0.5899    1.1037 H   0  0
   -1.2937    4.1116   -6.6180 H   0  0
   -2.9806    3.5496   -6.8827 H   0  0
   -1.7020    2.3900   -6.4687 H   0  0
   -1.5191    3.8923   -2.3588 H   0  0
   -2.7346    2.5902   -2.4327 H   0  0
    2.7518   -0.4374   -0.5610 H   0  0
  1  2  1  0
  1  3  2  0
  2  4  2  0
  3  5  1  0
  4  6  1  0
  5  6  2  0
  5  8  1  0
  6  9  1  0
  7  8  1  0
  7 10  2  0
  8 26  2  0
  9 10  1  0
  9 27  2  0
 10 33  1  0
 11 20  1  0
 11 25  1  0
 11 28  2  0
 12 21  1  0
 12 29  2  0
 12 34  1  0
 13 22  1  0
 13 30  2  0
 13 35  1  0
 14 23  1  0
 14 31  2  0
 14 36  1  0
 15 16  1  0
 15 19  1  0
 15 25  1  0
 16 17  1  0
 16 34  1  0
 17 18  1  0
 17 35  1  0
 18 24  1  0
 18 32  1  0
 19 32  1  0
 19 33  1  0
 24 36  1  0
  1 37  1  0
  2 38  1  0
  3 39  1  0
  4 40  1  0
  7 41  1  0
 15 42  1  0
 16 43  1  0
 17 44  1  0
 18 45  1  0
 19 46  1  0
 20 47  1  0
 20 48  1  0
 20 49  1  0
 21 50  1  0
 21 51  1  0
 21 52  1  0
 22 53  1  0
 22 54  1  0
 22 55  1  0
 23 56  1  0
 23 57  1  0
 23 58  1  0
 24 59  1  0
 24 60  1  0
 25 61  1  0
M  END
> <Name>
BR010192

$$$$
BR010193
  SciTegic05062102053D

 54 56  0  0  1  0            999 V2000
    5.1907   -3.0354    8.6381 C   0  0
    3.9066   -3.5544    8.7946 C   0  0
    5.6746   -2.7372    7.3640 C   0  0
    3.1005   -3.7777    7.6778 C   0  0
    4.8689   -2.9599    6.2416 C   0  0
    3.5821   -3.4800    6.3977 C   0  0
    4.5033   -2.8943    3.7432 C   0  0
    5.3887   -2.6418    4.8984 C   0  0
    2.7214   -3.7199    5.2223 C   0  0
    3.2723   -3.3912    3.8847 C   0  0
   -2.4114   -1.6977   -0.0149 C   0  0
    0.8442   -0.8489   -2.0171 C   0  0
    0.0126   -5.1803    2.4436 C   0  0
   -0.2942   -1.8943    1.0160 C   0  0  2  0  0  0
    0.5970   -0.8565    0.3330 C   0  0  1  0  0  0
    0.5400   -3.0409    1.5898 C   0  0  1  0  0  0
    1.7054   -0.4106    1.2923 C   0  0  2  0  0  0
    1.6884   -2.4987    2.4452 C   0  0  2  0  0  0
   -3.3044   -2.3367   -1.0348 C   0  0
    1.5131   -1.5704   -3.1475 C   0  0
   -0.9586   -5.9058    3.3247 C   0  0
    2.6796    0.5748    0.6582 C   0  0
    6.5130   -2.1842    4.7338 O   0  0
    1.5901   -4.1748    5.3437 O   0  0
   -2.7086   -0.6989    0.6264 O   0  0
    0.1202    0.1271   -2.1600 O   0  0
    0.9459   -5.7186    1.8637 O   0  0
    2.4653   -1.5482    1.7185 O   0  0
    2.5077   -3.6039    2.8244 O   0  0
   -1.2411   -2.3966    0.0773 O   0  0
    1.1703   -1.4474   -0.8353 O   0  0
   -0.3093   -3.8543    2.3982 O   0  0
    5.8156   -2.8628    9.5096 H   0  0
    3.5327   -3.7856    9.7879 H   0  0
    6.6788   -2.3334    7.2672 H   0  0
    2.1032   -4.1831    7.8259 H   0  0
    4.8987   -2.6563    2.7609 H   0  0
   -0.8669   -1.4144    1.8197 H   0  0
   -0.0109   -0.0069    0.0013 H   0  0
    0.9181   -3.6781    0.7811 H   0  0
    1.2631    0.0654    2.1771 H   0  0
    1.3056   -2.0421    3.3668 H   0  0
   -3.1135   -1.9023   -2.0192 H   0  0
   -4.3506   -2.2000   -0.7495 H   0  0
   -3.0938   -3.4091   -1.0802 H   0  0
    2.4949   -1.1305   -3.3390 H   0  0
    0.8870   -1.5200   -4.0420 H   0  0
    1.6488   -2.6216   -2.8771 H   0  0
   -0.5934   -5.9101    4.3546 H   0  0
   -1.0983   -6.9269    2.9609 H   0  0
   -1.9244   -5.3926    3.2994 H   0  0
    3.1367    0.1301   -0.2257 H   0  0
    3.4635    0.8337    1.3698 H   0  0
    2.1529    1.4831    0.3654 H   0  0
  1  2  1  0
  1  3  2  0
  2  4  2  0
  3  5  1  0
  4  6  1  0
  5  6  2  0
  5  8  1  0
  6  9  1  0
  7  8  1  0
  7 10  2  0
  8 23  2  0
  9 10  1  0
  9 24  2  0
 10 29  1  0
 11 19  1  0
 11 25  2  0
 11 30  1  0
 12 20  1  0
 12 26  2  0
 12 31  1  0
 13 21  1  0
 13 27  2  0
 13 32  1  0
 14 15  1  0
 14 16  1  0
 14 30  1  0
 15 17  1  0
 15 31  1  0
 16 18  1  0
 16 32  1  0
 17 22  1  0
 17 28  1  0
 18 28  1  0
 18 29  1  0
  1 33  1  0
  2 34  1  0
  3 35  1  0
  4 36  1  0
  7 37  1  0
 14 38  1  0
 15 39  1  0
 16 40  1  0
 17 41  1  0
 18 42  1  0
 19 43  1  0
 19 44  1  0
 19 45  1  0
 20 46  1  0
 20 47  1  0
 20 48  1  0
 21 49  1  0
 21 50  1  0
 21 51  1  0
 22 52  1  0
 22 53  1  0
 22 54  1  0
M  END
> <Name>
BR010193

$$$$
BR010194
  SciTegic05062102053D

 69 72  0  0  1  0            999 V2000
  -10.6080   -0.6078  -10.4620 C   0  0
   -9.6845    0.4231  -10.6262 C   0  0
  -10.5539   -1.4225   -9.3307 C   0  0
   -8.7024    0.6441   -9.6600 C   0  0
   -3.7137    0.1069   -4.3551 C   0  0
   -9.5702   -1.2037   -8.3595 C   0  0
   -8.6443   -0.1709   -8.5235 C   0  0
   -4.4651   -1.0252   -4.5462 C   0  0
   -8.4642   -1.8024   -6.1690 C   0  0
   -9.5203   -2.0699   -7.1668 C   0  0
   -7.6014    0.0711   -7.5069 C   0  0
   -7.5760   -0.8171   -6.3190 C   0  0
   -2.3673    2.7233    1.5063 C   0  0
    1.7161    1.2182    1.0648 C   0  0
   -4.7046    1.2927   -0.4429 C   0  0
    2.4897   -2.1810   -1.7404 C   0  0
   -1.3384    1.6626   -0.3375 C   0  0  1  0  0  0
    0.0024    0.9550   -0.5408 C   0  0  1  0  0  0
   -2.4603    0.9571   -1.1020 C   0  0  2  0  0  0
    0.2712    0.7216   -2.0306 C   0  0  1  0  0  0
   -2.0474    0.6854   -2.5533 C   0  0  2  0  0  0
   -2.6144    2.5814    2.9777 C   0  0
    2.7505    2.1847    1.5566 C   0  0
   -5.8244    2.2877   -0.4890 C   0  0
    2.2147   -3.4610   -1.0111 C   0  0
   -5.4264   -1.3276   -5.6145 C   0  0
    1.5476   -0.0793   -2.2689 C   0  0
   -4.2004   -1.9257   -3.5519 N   0  0
   -3.2997   -1.3837   -2.7395 N   0  0
   -3.0093   -0.1649   -3.2228 N   0  0
  -10.3205   -2.9819   -6.9983 O   0  0
   -6.7831    0.9739   -7.6365 O   0  0
   -2.7640    3.6646    0.8326 O   0  0
    1.5385    0.1044    1.5393 O   0  0
   -4.7870    0.1924    0.0861 O   0  0
    3.5265   -1.9469   -2.3465 O   0  0
   -0.8033   -0.0140   -2.6175 O   0  0
   -6.6442   -0.6083   -5.4030 O   0  0
   -1.6462    1.6555    1.0579 O   0  0
    1.0234    1.7723    0.0261 O   0  0
   -3.6073    1.8058   -1.0724 O   0  0
    1.4201   -1.3330   -1.6232 O   0  0
  -11.3712   -0.7772  -11.2161 H   0  0
   -9.7293    1.0557  -11.5080 H   0  0
  -11.2846   -2.2197   -9.2247 H   0  0
   -7.9939    1.4541   -9.8109 H   0  0
   -3.6216    1.0363   -4.8992 H   0  0
   -8.4388   -2.4477   -5.2967 H   0  0
   -1.2651    2.7167   -0.6332 H   0  0
   -0.0090    0.0046    0.0081 H   0  0
   -2.7235    0.0257   -0.5842 H   0  0
    0.3783    1.6808   -2.5545 H   0  0
   -2.0014    1.6030   -3.1508 H   0  0
   -3.5478    2.0388    3.1464 H   0  0
   -2.6528    3.5689    3.4443 H   0  0
   -1.7952    2.0148    3.4299 H   0  0
    3.6874    2.0327    1.0150 H   0  0
    2.9005    2.0526    2.6311 H   0  0
    2.4059    3.2073    1.3769 H   0  0
   -5.7796    2.9373    0.3886 H   0  0
   -6.7833    1.7652   -0.5334 H   0  0
   -5.7235    2.9059   -1.3858 H   0  0
    2.5560   -3.3790    0.0238 H   0  0
    2.7143   -4.2910   -1.5171 H   0  0
    1.1378   -3.6530   -1.0089 H   0  0
   -5.0456   -1.0533   -6.6173 H   0  0
   -5.6756   -2.4051   -5.6621 H   0  0
    2.4038    0.4536   -1.8552 H   0  0
    1.6938   -0.2374   -3.3374 H   0  0
  1  2  1  0
  1  3  2  0
  2  4  2  0
  3  6  1  0
  4  7  1  0
  5  8  2  0
  5 30  1  0
  6  7  2  0
  6 10  1  0
  7 11  1  0
  8 26  1  0
  8 28  1  0
  9 10  1  0
  9 12  2  0
 10 31  2  0
 11 12  1  0
 11 32  2  0
 12 38  1  0
 13 22  1  0
 13 33  2  0
 13 39  1  0
 14 23  1  0
 14 34  2  0
 14 40  1  0
 15 24  1  0
 15 35  2  0
 15 41  1  0
 16 25  1  0
 16 36  2  0
 16 42  1  0
 17 18  1  0
 17 19  1  0
 17 39  1  0
 18 20  1  0
 18 40  1  0
 19 21  1  0
 19 41  1  0
 20 27  1  0
 20 37  1  0
 21 30  1  0
 21 37  1  0
 26 38  1  0
 27 42  1  0
 28 29  2  0
 29 30  1  0
  1 43  1  0
  2 44  1  0
  3 45  1  0
  4 46  1  0
  5 47  1  0
  9 48  1  0
 17 49  1  0
 18 50  1  0
 19 51  1  0
 20 52  1  0
 21 53  1  0
 22 54  1  0
 22 55  1  0
 22 56  1  0
 23 57  1  0
 23 58  1  0
 23 59  1  0
 24 60  1  0
 24 61  1  0
 24 62  1  0
 25 63  1  0
 25 64  1  0
 25 65  1  0
 26 66  1  0
 26 67  1  0
 27 68  1  0
 27 69  1  0
M  END
> <Name>
BR010194

$$$$
BR010195
  SciTegic05062102053D

 69 72  0  0  1  0            999 V2000
   -5.3729   -6.0801  -10.3833 C   0  0
   -5.1627   -4.7053  -10.4745 C   0  0
   -5.0717   -6.7574   -9.2013 C   0  0
   -4.6502   -4.0013   -9.3842 C   0  0
   -1.1961   -1.8132   -3.3345 C   0  0
   -4.5575   -6.0545   -8.1058 C   0  0
   -4.3465   -4.6768   -8.1966 C   0  0
   -1.1491   -3.1662   -3.5587 C   0  0
   -3.7002   -5.9956   -5.7306 C   0  0
   -4.2418   -6.7786   -6.8602 C   0  0
   -3.8047   -3.9228   -7.0486 C   0  0
   -3.4959   -4.6787   -5.8100 C   0  0
   -1.6248    1.7068    2.8469 C   0  0
    1.8866   -0.0401    2.8536 C   0  0
   -3.3955   -1.0213    0.7313 C   0  0
    4.6138    2.2690    0.3429 C   0  0
   -0.7929    0.6870    0.8843 C   0  0  1  0  0  0
    0.7287    0.8020    0.9738 C   0  0  2  0  0  0
   -1.2067   -0.5004    0.0093 C   0  0  2  0  0  0
    1.3312    0.8384   -0.4336 C   0  0  1  0  0  0
   -0.4671   -0.4547   -1.3398 C   0  0  2  0  0  0
   -2.1817    1.4018    4.2044 C   0  0
    2.3526   -1.3118    3.4952 C   0  0
   -4.8409   -0.8488    0.3748 C   0  0
    4.8952    3.5445    1.0778 C   0  0
   -1.5822   -3.9233   -4.7403 C   0  0
    2.8541    0.8927   -0.4270 C   0  0
   -0.6054   -3.7934   -2.4722 N   0  0
   -0.3105   -2.8641   -1.5697 N   0  0
   -0.6656   -1.6776   -2.0886 N   0  0
   -4.4180   -7.9861   -6.7540 O   0  0
   -3.6152   -2.7139   -7.1130 O   0  0
   -1.4652    2.8386    2.4102 O   0  0
    2.0790    1.0739    3.3217 O   0  0
   -3.0011   -1.6213    1.7220 O   0  0
    5.4807    1.5284   -0.1010 O   0  0
    0.9485   -0.3364   -1.1579 O   0  0
   -3.0091   -4.0114   -4.7763 O   0  0
   -1.3330    0.5423    2.1952 O   0  0
    1.2300   -0.3269    1.6927 O   0  0
   -2.6145   -0.4130   -0.2086 O   0  0
    3.2620    2.0688    0.2488 O   0  0
   -5.7719   -6.6252  -11.2339 H   0  0
   -5.3983   -4.1808  -11.3961 H   0  0
   -5.2441   -7.8292   -9.1541 H   0  0
   -4.4953   -2.9300   -9.4802 H   0  0
   -1.5423   -0.9757   -3.9235 H   0  0
   -3.4718   -6.5411   -4.8205 H   0  0
   -1.2076    1.6150    0.4705 H   0  0
    0.9985    1.6963    1.5473 H   0  0
   -1.0120   -1.4394    0.5426 H   0  0
    0.9582    1.7176   -0.9748 H   0  0
   -0.8345    0.3504   -1.9860 H   0  0
   -3.2690    1.3083    4.1468 H   0  0
   -1.8993    2.1900    4.9069 H   0  0
   -1.7687    0.4538    4.5612 H   0  0
    1.5816   -1.6906    4.1706 H   0  0
    3.2856   -1.1343    4.0360 H   0  0
    2.5370   -2.0622    2.7209 H   0  0
   -5.2277    0.0677    0.8273 H   0  0
   -5.4126   -1.7167    0.7130 H   0  0
   -4.9395   -0.7695   -0.7117 H   0  0
    4.9500    4.3757    0.3705 H   0  0
    5.8297    3.4520    1.6370 H   0  0
    4.0847    3.7417    1.7854 H   0  0
   -1.2517   -3.4554   -5.6878 H   0  0
   -1.1807   -4.9549   -4.7480 H   0  0
    3.2316    0.9170   -1.4499 H   0  0
    3.2571    0.0221    0.0918 H   0  0
  1  2  1  0
  1  3  2  0
  2  4  2  0
  3  6  1  0
  4  7  1  0
  5  8  2  0
  5 30  1  0
  6  7  2  0
  6 10  1  0
  7 11  1  0
  8 26  1  0
  8 28  1  0
  9 10  1  0
  9 12  2  0
 10 31  2  0
 11 12  1  0
 11 32  2  0
 12 38  1  0
 13 22  1  0
 13 33  2  0
 13 39  1  0
 14 23  1  0
 14 34  2  0
 14 40  1  0
 15 24  1  0
 15 35  2  0
 15 41  1  0
 16 25  1  0
 16 36  2  0
 16 42  1  0
 17 18  1  0
 17 19  1  0
 17 39  1  0
 18 20  1  0
 18 40  1  0
 19 21  1  0
 19 41  1  0
 20 27  1  0
 20 37  1  0
 21 30  1  0
 21 37  1  0
 26 38  1  0
 27 42  1  0
 28 29  2  0
 29 30  1  0
  1 43  1  0
  2 44  1  0
  3 45  1  0
  4 46  1  0
  5 47  1  0
  9 48  1  0
 17 49  1  0
 18 50  1  0
 19 51  1  0
 20 52  1  0
 21 53  1  0
 22 54  1  0
 22 55  1  0
 22 56  1  0
 23 57  1  0
 23 58  1  0
 23 59  1  0
 24 60  1  0
 24 61  1  0
 24 62  1  0
 25 63  1  0
 25 64  1  0
 25 65  1  0
 26 66  1  0
 26 67  1  0
 27 68  1  0
 27 69  1  0
M  END
> <Name>
BR010195

$$$$
BR010196
  SciTegic05062102053D

 70 73  0  0  1  0            999 V2000
    6.4144   10.6023   -4.7342 C   0  0
    5.5404   10.7751   -3.6624 C   0  0
    6.5616    9.3456   -5.3219 C   0  0
    4.8094    9.6919   -3.1732 C   0  0
    2.3422    3.1218   -1.1572 C   0  0
    5.8300    8.2569   -4.8338 C   0  0
    4.9541    8.4293   -3.7597 C   0  0
    3.4678    3.0908   -1.9414 C   0  0
    5.2003    5.8120   -4.9119 C   0  0
    5.9919    6.9318   -5.4611 C   0  0
    4.1761    7.2895   -3.2347 C   0  0
    4.3611    5.9693   -3.8856 C   0  0
   -0.5382    1.1857   -3.6280 C   0  0
   -3.0936   -1.5031   -1.0678 C   0  0
   -1.6435   -2.9522    1.5664 C   0  0
    2.6450   -2.7448    2.8440 C   0  0
   -0.0767    0.4533   -1.2971 C   0  0  2  0  0  0
   -1.1372   -0.3085   -0.4937 C   0  0  2  0  0  0
   -0.5108   -1.0827    0.6686 C   0  0  1  0  0  0
    0.4069   -0.1764    1.4933 C   0  0  1  0  0  0
    0.8466    1.2561   -0.3616 C   0  0  2  0  0  0
   -1.2885    2.1903   -4.4380 C   0  0
   -3.6441   -2.4827   -2.0594 C   0  0
   -2.7933   -3.3397    2.4461 C   0  0
    3.4155   -3.7717    2.0708 C   0  0
    4.3183    4.2038   -2.3827 C   0  0
    1.1390   -0.9415    2.5911 C   0  0
    3.7432    1.8002   -2.2991 N   0  0
    2.8145    1.0195   -1.7577 N   0  0
    1.9754    1.8139   -1.0735 N   0  0
   -0.7108    1.3223   -2.2646 N   0  0
    6.7527    6.7537   -6.4045 O   0  0
    3.4031    7.4256   -2.2938 O   0  0
    0.1485    0.3438   -4.1948 O   0  0
   -3.7380   -1.0307   -0.1412 O   0  0
   -0.8985   -3.7541    1.0195 O   0  0
    2.6741   -2.6408    4.0628 O   0  0
    1.4016    0.4061    0.6489 O   0  0
    3.6687    4.9418   -3.4212 O   0  0
   -1.7895   -1.2347   -1.3653 O   0  0
   -1.5670   -1.5911    1.4793 O   0  0
    1.9185   -1.9588    1.9889 O   0  0
    6.9820   11.4476   -5.1126 H   0  0
    5.4279   11.7548   -3.2070 H   0  0
    7.2490    9.2355   -6.1563 H   0  0
    4.1345    9.8521   -2.3367 H   0  0
    1.7971    3.9202   -0.6738 H   0  0
    5.3296    4.8427   -5.3825 H   0  0
    0.5145   -0.2657   -1.8797 H   0  0
   -1.9091    0.3784   -0.1228 H   0  0
    0.0445   -1.9400    0.2665 H   0  0
   -0.1722    0.6234    1.9731 H   0  0
    0.3340    2.1045    0.1061 H   0  0
   -0.6996    3.1020   -4.6278 H   0  0
   -1.5618    1.8075   -5.4344 H   0  0
   -2.2333    2.5428   -3.9941 H   0  0
   -4.0775   -1.9477   -2.9079 H   0  0
   -4.3945   -3.1153   -1.5785 H   0  0
   -2.8349   -3.1209   -2.4262 H   0  0
   -2.4571   -3.4176    3.4829 H   0  0
   -3.2174   -4.2878    2.1060 H   0  0
   -3.5694   -2.5710    2.3880 H   0  0
    2.8139   -4.6764    1.9539 H   0  0
    4.3535   -3.9962    2.5848 H   0  0
    3.6491   -3.3776    1.0775 H   0  0
    4.5489    4.9116   -1.5631 H   0  0
    5.2934    3.8567   -2.7754 H   0  0
    0.4189   -1.3952    3.2723 H   0  0
    1.7926   -0.2662    3.1434 H   0  0
   -1.3106    2.0673   -1.9254 H   0  0
  1  2  1  0
  1  3  2  0
  2  4  2  0
  3  6  1  0
  4  7  1  0
  5  8  2  0
  5 30  1  0
  6  7  2  0
  6 10  1  0
  7 11  1  0
  8 26  1  0
  8 28  1  0
  9 10  1  0
  9 12  2  0
 10 32  2  0
 11 12  1  0
 11 33  2  0
 12 39  1  0
 13 22  1  0
 13 31  1  0
 13 34  2  0
 14 23  1  0
 14 35  2  0
 14 40  1  0
 15 24  1  0
 15 36  2  0
 15 41  1  0
 16 25  1  0
 16 37  2  0
 16 42  1  0
 17 18  1  0
 17 21  1  0
 17 31  1  0
 18 19  1  0
 18 40  1  0
 19 20  1  0
 19 41  1  0
 20 27  1  0
 20 38  1  0
 21 30  1  0
 21 38  1  0
 26 39  1  0
 27 42  1  0
 28 29  2  0
 29 30  1  0
  1 43  1  0
  2 44  1  0
  3 45  1  0
  4 46  1  0
  5 47  1  0
  9 48  1  0
 17 49  1  0
 18 50  1  0
 19 51  1  0
 20 52  1  0
 21 53  1  0
 22 54  1  0
 22 55  1  0
 22 56  1  0
 23 57  1  0
 23 58  1  0
 23 59  1  0
 24 60  1  0
 24 61  1  0
 24 62  1  0
 25 63  1  0
 25 64  1  0
 25 65  1  0
 26 66  1  0
 26 67  1  0
 27 68  1  0
 27 69  1  0
 31 70  1  0
M  END
> <Name>
BR010196

$$$$
BR010197
  SciTegic05062102053D

 63 66  0  0  1  0            999 V2000
   -1.5265  -13.1257    0.6491 C   0  0
   -2.3973  -12.4097   -0.1704 C   0  0
   -0.4751  -12.4727    1.2930 C   0  0
   -2.2208  -11.0373   -0.3501 C   0  0
   -0.9603   -3.7968    0.7168 C   0  0
   -0.2950  -11.0962    1.1151 C   0  0
   -1.1672  -10.3782    0.2938 C   0  0
   -0.1303   -4.7260    1.2921 C   0  0
    0.9709   -8.9608    1.5813 C   0  0
    0.8193  -10.4140    1.7995 C   0  0
   -0.9889   -8.9257    0.0973 C   0  0
    0.1412   -8.2680    0.7979 C   0  0
    0.7410    2.0580   -2.9743 C   0  0
    1.9693    2.7107    0.6934 C   0  0
    1.2843   -1.7815   -2.8766 C   0  0
    0.1201    0.5931   -1.2271 C   0  0  2  0  0  0
    0.0791    1.4550    0.0347 C   0  0  1  0  0  0
    0.3840   -0.8761   -0.8883 C   0  0  1  0  0  0
   -0.9248    0.8669    1.0302 C   0  0  2  0  0  0
   -0.5868   -1.3565    0.2069 C   0  0  1  0  0  0
    1.9035    2.4759   -3.8228 C   0  0
    3.3263    2.5840    1.3168 C   0  0
    0.9308   -2.6034   -4.0790 C   0  0
   -0.9812    1.6381    2.3433 C   0  0
   -0.3837   -6.1455    1.5706 C   0  0
    1.0662   -4.1425    1.6042 N   0  0
    1.0058   -2.8666    1.2386 N   0  0
   -0.2101   -2.6614    0.7069 N   0  0
    1.5978  -11.0199    2.5255 O   0  0
   -1.7466   -8.2824   -0.6192 O   0  0
   -0.3825    2.5332   -3.0692 O   0  0
    1.4820    3.7699    0.3222 O   0  0
    2.3969   -1.3177   -2.6667 O   0  0
   -0.5666   -0.4839    1.3430 O   0  0
    0.3094   -6.9666    0.6269 O   0  0
    1.1339    1.0846   -2.1002 O   0  0
    1.3858    1.4802    0.6129 O   0  0
    0.1869   -1.6414   -2.0768 O   0  0
   -1.6667  -14.1940    0.7868 H   0  0
   -3.2150  -12.9210   -0.6703 H   0  0
    0.1907  -13.0520    1.9269 H   0  0
   -2.9130  -10.5014   -0.9939 H   0  0
   -1.9691   -3.8416    0.3313 H   0  0
    1.7953   -8.4718    2.0904 H   0  0
   -0.8325    0.6845   -1.7643 H   0  0
   -0.1779    2.4871   -0.2301 H   0  0
    1.4298   -1.0044   -0.5819 H   0  0
   -1.9297    0.8666    0.5885 H   0  0
   -1.6107   -1.4670   -0.1673 H   0  0
    2.4372    3.2990   -3.3414 H   0  0
    1.5515    2.7722   -4.8142 H   0  0
    2.5915    1.6331   -3.9358 H   0  0
    3.2473    2.6880    2.4017 H   0  0
    3.9962    3.3428    0.9045 H   0  0
    3.7386    1.5964    1.0904 H   0  0
    1.1039   -3.6617   -3.8687 H   0  0
    1.5241   -2.2788   -4.9376 H   0  0
   -0.1280   -2.4635   -4.3153 H   0  0
    0.0049    1.6561    2.8074 H   0  0
   -1.6847    1.1611    3.0255 H   0  0
   -1.3049    2.6626    2.1600 H   0  0
   -0.0502   -6.4446    2.5831 H   0  0
   -1.4596   -6.3991    1.5116 H   0  0
  1  2  1  0
  1  3  2  0
  2  4  2  0
  3  6  1  0
  4  7  1  0
  5  8  2  0
  5 28  1  0
  6  7  2  0
  6 10  1  0
  7 11  1  0
  8 25  1  0
  8 26  1  0
  9 10  1  0
  9 12  2  0
 10 29  2  0
 11 12  1  0
 11 30  2  0
 12 35  1  0
 13 21  1  0
 13 31  2  0
 13 36  1  0
 14 22  1  0
 14 32  2  0
 14 37  1  0
 15 23  1  0
 15 33  2  0
 15 38  1  0
 16 17  1  0
 16 18  1  0
 16 36  1  0
 17 19  1  0
 17 37  1  0
 18 20  1  0
 18 38  1  0
 19 24  1  0
 19 34  1  0
 20 28  1  0
 20 34  1  0
 25 35  1  0
 26 27  2  0
 27 28  1  0
  1 39  1  0
  2 40  1  0
  3 41  1  0
  4 42  1  0
  5 43  1  0
  9 44  1  0
 16 45  1  0
 17 46  1  0
 18 47  1  0
 19 48  1  0
 20 49  1  0
 21 50  1  0
 21 51  1  0
 21 52  1  0
 22 53  1  0
 22 54  1  0
 22 55  1  0
 23 56  1  0
 23 57  1  0
 23 58  1  0
 24 59  1  0
 24 60  1  0
 24 61  1  0
 25 62  1  0
 25 63  1  0
M  END
> <Name>
BR010197

$$$$
BR010198
  SciTegic05062102053D

 49 52  0  0  1  0            999 V2000
  -12.5886   -1.4529   -7.4438 C   0  0
  -12.3542   -0.2076   -6.8634 C   0  0
  -11.5484   -2.3745   -7.5674 C   0  0
  -11.0786    0.1220   -6.4039 C   0  0
   -4.3643   -0.0391   -3.2347 C   0  0
  -10.2677   -2.0472   -7.1077 C   0  0
  -10.0322   -0.7994   -6.5261 C   0  0
   -4.7786   -1.0931   -4.0096 C   0  0
   -7.8389   -2.6379   -6.7442 C   0  0
   -9.1739   -3.0275   -7.2425 C   0  0
   -8.6860   -0.4410   -6.0368 C   0  0
   -7.6063   -1.4472   -6.1872 C   0  0
   -0.0321    0.7344   -1.0357 C   0  0  1  0  0  0
    0.7122    1.4368   -2.1726 C   0  0  1  0  0  0
   -1.1868   -0.1157   -1.5693 C   0  0  2  0  0  0
   -0.2702    2.1694   -3.0916 C   0  0  1  0  0  0
   -2.0474    0.6854   -2.5533 C   0  0  2  0  0  0
   -6.1431   -1.4820   -4.3885 C   0  0
    0.4233    2.7915   -4.2998 C   0  0
   -3.6920   -1.8065   -4.4338 N   0  0
   -2.6040   -1.2243   -3.9416 N   0  0
   -3.0093   -0.1649   -3.2228 N   0  0
   -9.3537   -4.1287   -7.7480 O   0  0
   -8.4645    0.6493   -5.5234 O   0  0
   -1.2516    1.2599   -3.5915 O   0  0
    0.8909   -0.1101   -0.3451 O   0  0
    1.6331    2.3584   -1.5944 O   0  0
   -1.9765   -0.5263   -0.4537 O   0  0
   -0.5531    3.4356   -5.0976 O   0  0
   -6.3964   -1.1344   -5.7524 O   0  0
  -13.5827   -1.7064   -7.8006 H   0  0
  -13.1661    0.5077   -6.7685 H   0  0
  -11.7554   -3.3389   -8.0234 H   0  0
  -10.9213    1.0992   -5.9552 H   0  0
   -4.8887    0.7516   -2.7169 H   0  0
   -7.0433   -3.3685   -6.8504 H   0  0
   -0.3909    1.4666   -0.3015 H   0  0
    1.2913    0.6920   -2.7334 H   0  0
   -0.7840   -1.0210   -2.0416 H   0  0
   -0.7744    2.9776   -2.5454 H   0  0
   -2.6393    1.4599   -2.0524 H   0  0
   -6.3185   -2.5701   -4.2823 H   0  0
   -6.9101   -0.9827   -3.7656 H   0  0
    0.9141    2.0156   -4.8873 H   0  0
    1.1597    3.5243   -3.9698 H   0  0
    1.2209   -0.7446   -0.9984 H   0  0
    1.1069    2.9840   -1.0728 H   0  0
   -2.2942    0.2850   -0.0291 H   0  0
   -0.0891    3.8233   -5.8591 H   0  0
  1  2  1  0
  1  3  2  0
  2  4  2  0
  3  6  1  0
  4  7  1  0
  5  8  2  0
  5 22  1  0
  6  7  2  0
  6 10  1  0
  7 11  1  0
  8 18  1  0
  8 20  1  0
  9 10  1  0
  9 12  2  0
 10 23  2  0
 11 12  1  0
 11 24  2  0
 12 30  1  0
 13 14  1  0
 13 15  1  0
 13 26  1  0
 14 16  1  0
 14 27  1  0
 15 17  1  0
 15 28  1  0
 16 19  1  0
 16 25  1  0
 17 22  1  0
 17 25  1  0
 18 30  1  0
 19 29  1  0
 20 21  2  0
 21 22  1  0
  1 31  1  0
  2 32  1  0
  3 33  1  0
  4 34  1  0
  5 35  1  0
  9 36  1  0
 13 37  1  0
 14 38  1  0
 15 39  1  0
 16 40  1  0
 17 41  1  0
 18 42  1  0
 18 43  1  0
 19 44  1  0
 19 45  1  0
 26 46  1  0
 27 47  1  0
 28 48  1  0
 29 49  1  0
M  END
> <Name>
BR010198

$$$$
BR010199
  SciTegic05062102053D

 49 52  0  0  1  0            999 V2000
   -6.9176   -7.7898   -7.9871 C   0  0
   -7.5021   -6.6151   -7.5170 C   0  0
   -5.5557   -8.0209   -7.7916 C   0  0
   -6.7274   -5.6658   -6.8494 C   0  0
   -1.8449   -2.2869   -2.3889 C   0  0
   -4.7756   -7.0710   -7.1224 C   0  0
   -5.3606   -5.8935   -6.6513 C   0  0
   -1.4624   -3.3924   -3.1063 C   0  0
   -2.5528   -6.2924   -6.2097 C   0  0
   -3.3365   -7.3235   -6.9203 C   0  0
   -4.5495   -4.8829   -5.9436 C   0  0
   -3.1051   -5.1647   -5.7566 C   0  0
    0.8246    0.6439    0.5258 C   0  0  1  0  0  0
    1.3840    1.6096   -0.5187 C   0  0  2  0  0  0
    0.4302   -0.6919   -0.1119 C   0  0  2  0  0  0
    0.3936    1.7526   -1.6779 C   0  0  1  0  0  0
   -0.4671   -0.4547   -1.3398 C   0  0  2  0  0  0
   -2.2984   -4.4398   -3.7069 C   0  0
    0.9083    2.6564   -2.7915 C   0  0
   -0.0999   -3.4191   -3.2176 N   0  0
    0.3823   -2.3550   -2.5849 N   0  0
   -0.6656   -1.6776   -2.0886 N   0  0
   -2.7989   -8.3479   -7.3228 O   0  0
   -5.0490   -3.8458   -5.5238 O   0  0
    0.1317    0.4688   -2.2562 O   0  0
    1.8001    0.4328    1.5433 O   0  0
    2.6278    1.0934   -0.9975 O   0  0
   -0.2806   -1.4501    0.8663 O   0  0
   -0.1940    3.0901   -3.5682 O   0  0
   -2.3701   -4.2642   -5.1243 O   0  0
   -7.5234   -8.5267   -8.5064 H   0  0
   -8.5627   -6.4381   -7.6707 H   0  0
   -5.1225   -8.9441   -8.1670 H   0  0
   -7.2063   -4.7580   -6.4925 H   0  0
   -2.8056   -1.8985   -2.0816 H   0  0
   -1.4951   -6.4909   -6.0685 H   0  0
   -0.0493    1.0952    1.0123 H   0  0
    1.5945    2.5783   -0.0511 H   0  0
    1.3326   -1.2570   -0.3770 H   0  0
   -0.5533    2.1674   -1.3086 H   0  0
   -1.4701   -0.1137   -1.0596 H   0  0
   -1.9060   -5.4571   -3.5150 H   0  0
   -3.3331   -4.4279   -3.3132 H   0  0
    1.6022    2.1066   -3.4285 H   0  0
    1.4116    3.5252   -2.3656 H   0  0
    1.9825    1.3008    1.9354 H   0  0
    2.9511    1.7279   -1.6541 H   0  0
   -1.0583   -0.9249    1.1083 H   0  0
    0.1595    3.6633   -4.2695 H   0  0
  1  2  1  0
  1  3  2  0
  2  4  2  0
  3  6  1  0
  4  7  1  0
  5  8  2  0
  5 22  1  0
  6  7  2  0
  6 10  1  0
  7 11  1  0
  8 18  1  0
  8 20  1  0
  9 10  1  0
  9 12  2  0
 10 23  2  0
 11 12  1  0
 11 24  2  0
 12 30  1  0
 13 14  1  0
 13 15  1  0
 13 26  1  0
 14 16  1  0
 14 27  1  0
 15 17  1  0
 15 28  1  0
 16 19  1  0
 16 25  1  0
 17 22  1  0
 17 25  1  0
 18 30  1  0
 19 29  1  0
 20 21  2  0
 21 22  1  0
  1 31  1  0
  2 32  1  0
  3 33  1  0
  4 34  1  0
  5 35  1  0
  9 36  1  0
 13 37  1  0
 14 38  1  0
 15 39  1  0
 16 40  1  0
 17 41  1  0
 18 42  1  0
 18 43  1  0
 19 44  1  0
 19 45  1  0
 26 46  1  0
 27 47  1  0
 28 48  1  0
 29 49  1  0
M  END
> <Name>
BR010199

$$$$
BR010200
  SciTegic05062102053D

 55 58  0  0  1  0            999 V2000
    6.4144   10.6023   -4.7342 C   0  0
    5.5404   10.7751   -3.6624 C   0  0
    6.5616    9.3456   -5.3219 C   0  0
    4.8094    9.6919   -3.1732 C   0  0
    2.3422    3.1218   -1.1572 C   0  0
    5.8300    8.2569   -4.8338 C   0  0
    4.9541    8.4293   -3.7597 C   0  0
    3.4678    3.0908   -1.9414 C   0  0
    5.2003    5.8120   -4.9119 C   0  0
    5.9919    6.9318   -5.4611 C   0  0
    4.1761    7.2895   -3.2347 C   0  0
    4.3611    5.9693   -3.8856 C   0  0
   -0.5382    1.1857   -3.6280 C   0  0
   -0.0767    0.4533   -1.2971 C   0  0  2  0  0  0
   -1.1372   -0.3085   -0.4937 C   0  0  2  0  0  0
   -0.5108   -1.0827    0.6686 C   0  0  1  0  0  0
    0.4069   -0.1764    1.4933 C   0  0  1  0  0  0
    0.8466    1.2561   -0.3616 C   0  0  2  0  0  0
   -1.2885    2.1903   -4.4380 C   0  0
    4.3183    4.2038   -2.3827 C   0  0
    1.1390   -0.9415    2.5911 C   0  0
    3.7432    1.8002   -2.2991 N   0  0
    2.8145    1.0195   -1.7577 N   0  0
    1.9754    1.8139   -1.0735 N   0  0
   -0.7108    1.3223   -2.2646 N   0  0
    6.7527    6.7537   -6.4045 O   0  0
    3.4031    7.4256   -2.2938 O   0  0
    0.1485    0.3438   -4.1948 O   0  0
    1.4016    0.4061    0.6489 O   0  0
   -1.7895   -1.2347   -1.3653 O   0  0
   -1.5670   -1.5911    1.4793 O   0  0
    1.9696   -0.0360    3.2948 O   0  0
    3.6687    4.9418   -3.4212 O   0  0
    6.9820   11.4476   -5.1126 H   0  0
    5.4279   11.7548   -3.2070 H   0  0
    7.2490    9.2355   -6.1563 H   0  0
    4.1345    9.8521   -2.3367 H   0  0
    1.7971    3.9202   -0.6738 H   0  0
    5.3296    4.8427   -5.3825 H   0  0
    0.5145   -0.2657   -1.8797 H   0  0
   -1.9091    0.3784   -0.1228 H   0  0
    0.0445   -1.9400    0.2665 H   0  0
   -0.1722    0.6234    1.9731 H   0  0
    0.3340    2.1045    0.1061 H   0  0
   -0.6996    3.1020   -4.6278 H   0  0
   -1.5618    1.8075   -5.4344 H   0  0
   -2.2333    2.5428   -3.9941 H   0  0
    4.5489    4.9116   -1.5631 H   0  0
    5.2934    3.8567   -2.7754 H   0  0
    1.7539   -1.7267    2.1510 H   0  0
    0.4195   -1.3816    3.2818 H   0  0
   -1.3106    2.0673   -1.9254 H   0  0
   -1.1001   -1.8297   -1.6951 H   0  0
   -2.0694   -0.8229    1.7920 H   0  0
    2.4245   -0.5451    3.9873 H   0  0
  1  2  1  0
  1  3  2  0
  2  4  2  0
  3  6  1  0
  4  7  1  0
  5  8  2  0
  5 24  1  0
  6  7  2  0
  6 10  1  0
  7 11  1  0
  8 20  1  0
  8 22  1  0
  9 10  1  0
  9 12  2  0
 10 26  2  0
 11 12  1  0
 11 27  2  0
 12 33  1  0
 13 19  1  0
 13 25  1  0
 13 28  2  0
 14 15  1  0
 14 18  1  0
 14 25  1  0
 15 16  1  0
 15 30  1  0
 16 17  1  0
 16 31  1  0
 17 21  1  0
 17 29  1  0
 18 24  1  0
 18 29  1  0
 20 33  1  0
 21 32  1  0
 22 23  2  0
 23 24  1  0
  1 34  1  0
  2 35  1  0
  3 36  1  0
  4 37  1  0
  5 38  1  0
  9 39  1  0
 14 40  1  0
 15 41  1  0
 16 42  1  0
 17 43  1  0
 18 44  1  0
 19 45  1  0
 19 46  1  0
 19 47  1  0
 20 48  1  0
 20 49  1  0
 21 50  1  0
 21 51  1  0
 25 52  1  0
 30 53  1  0
 31 54  1  0
 32 55  1  0
M  END
> <Name>
BR010200

$$$$
BR010201
  SciTegic05062102053D

 48 51  0  0  1  0            999 V2000
   -1.8092  -13.0830    0.9735 C   0  0
   -2.7177  -12.3589    0.2035 C   0  0
   -0.6966  -12.4475    1.5254 C   0  0
   -2.5177  -10.9960   -0.0185 C   0  0
   -0.9880   -3.7745    0.7958 C   0  0
   -0.4928  -11.0806    1.3048 C   0  0
   -1.4027  -10.3544    0.5331 C   0  0
   -0.1437   -4.7153    1.3299 C   0  0
    0.8609   -8.9733    1.6317 C   0  0
    0.6863  -10.4169    1.8920 C   0  0
   -1.2000   -8.9119    0.2925 C   0  0
   -0.0046   -8.2728    0.8952 C   0  0
    0.0663    0.5433   -1.3168 C   0  0  2  0  0  0
    0.1404    1.4309   -0.0745 C   0  0  1  0  0  0
    0.3144   -0.9259   -0.9657 C   0  0  1  0  0  0
   -0.8039    0.8916    1.0035 C   0  0  2  0  0  0
   -0.5868   -1.3565    0.2069 C   0  0  1  0  0  0
   -0.7438    1.6900    2.3001 C   0  0
   -0.4144   -6.1212    1.6570 C   0  0
    1.0876   -4.1601    1.5421 N   0  0
    1.0353   -2.8906    1.1539 N   0  0
   -0.2101   -2.6614    0.7069 N   0  0
    1.4990  -11.0302    2.5730 O   0  0
   -1.9901   -8.2616   -0.3815 O   0  0
   -0.4605   -0.4624    1.3192 O   0  0
    1.0269    0.9882   -2.2713 O   0  0
    1.4859    1.4303    0.4073 O   0  0
    0.0109   -1.7088   -2.1199 O   0  0
    0.1858   -6.9804    0.6840 O   0  0
   -1.9678  -14.1439    1.1444 H   0  0
   -3.5830  -12.8565   -0.2248 H   0  0
   -0.0023  -13.0329    2.1222 H   0  0
   -3.2401  -10.4534   -0.6223 H   0  0
   -2.0229   -3.7982    0.4851 H   0  0
    1.7330   -8.4979    2.0692 H   0  0
   -0.9200    0.6510   -1.7857 H   0  0
   -0.1071    2.4644   -0.3426 H   0  0
    1.3759   -1.0778   -0.7328 H   0  0
   -1.8379    0.9111    0.6356 H   0  0
   -1.6378   -1.4451   -0.0900 H   0  0
    0.2735    1.6891    2.6913 H   0  0
   -1.4085    1.2470    3.0415 H   0  0
   -1.0522    2.7195    2.1182 H   0  0
   -0.0164   -6.4096    2.6491 H   0  0
   -1.4982   -6.3452    1.6814 H   0  0
    0.7984    1.9059   -2.4857 H   0  0
    1.4949    1.9999    1.1907 H   0  0
   -0.9212   -1.5421   -2.3268 H   0  0
  1  2  1  0
  1  3  2  0
  2  4  2  0
  3  6  1  0
  4  7  1  0
  5  8  2  0
  5 22  1  0
  6  7  2  0
  6 10  1  0
  7 11  1  0
  8 19  1  0
  8 20  1  0
  9 10  1  0
  9 12  2  0
 10 23  2  0
 11 12  1  0
 11 24  2  0
 12 29  1  0
 13 14  1  0
 13 15  1  0
 13 26  1  0
 14 16  1  0
 14 27  1  0
 15 17  1  0
 15 28  1  0
 16 18  1  0
 16 25  1  0
 17 22  1  0
 17 25  1  0
 19 29  1  0
 20 21  2  0
 21 22  1  0
  1 30  1  0
  2 31  1  0
  3 32  1  0
  4 33  1  0
  5 34  1  0
  9 35  1  0
 13 36  1  0
 14 37  1  0
 15 38  1  0
 16 39  1  0
 17 40  1  0
 18 41  1  0
 18 42  1  0
 18 43  1  0
 19 44  1  0
 19 45  1  0
 26 46  1  0
 27 47  1  0
 28 48  1  0
M  END
> <Name>
BR010201

$$$$
BR010202
  SciTegic05062102053D

 62 66  0  0  1  0            999 V2000
    0.4852    1.1076   -5.3665 C   0  0
    1.5582    1.3209   -4.6096 C   0  0
    0.9779    0.7906   -6.7080 C   0  0
    2.8025    1.1609   -5.3893 C   0  0
    0.3410    2.5176   -2.7912 C   0  0
   -2.2077   -1.7121    0.6258 C   0  0
   -1.8422   -0.8506   -0.5785 C   0  0
    1.8636   -0.0046    0.3585 C   0  0
   -0.1045    0.7625    3.5953 C   0  0
    2.1669    0.9394   -0.8029 C   0  0
    0.5466   -0.5431    3.1447 C   0  0
   -0.5881    1.6253   -1.9563 C   0  0
   -2.2321    0.0794    2.4105 C   0  0
    1.5815    1.6788   -3.1514 C   0  0  1  0  0  0
   -1.5610   -1.2302    1.9325 C   0  0  2  0  0  0
    0.3489   -0.1917    0.5684 C   0  0  1  0  0  0
   -0.3198   -0.6780   -0.7516 C   0  0  2  0  0  0
   -1.6215    0.6455    3.6896 C   0  0  1  0  0  0
    1.5460    0.4814   -2.1488 C   0  0  2  0  0  0
   -0.0090   -1.1064    1.8039 C   0  0  1  0  0  0
    0.0250    0.2119   -1.9807 C   0  0  2  0  0  0
    2.3342   -0.7404   -2.6649 C   0  0
    0.6084   -2.5218    1.6493 C   0  0
   -4.0181    0.2799    5.9288 N   0  5
   -1.9704   -0.2252    4.8208 N   0  0
   -3.0387    0.0431    5.3943 N   0  3
    0.2746    0.5362   -7.6705 O   0  0
    2.3423    0.8266   -6.7030 O   0  0
   -0.4991   -0.4264   -3.1548 O   0  0
   -0.5518    1.1508   -5.0820 H   0  0
    3.3838    2.0862   -5.4401 H   0  0
    3.4279    0.3463   -5.0127 H   0  0
   -0.1824    2.9095   -3.6713 H   0  0
    0.6374    3.3887   -2.1939 H   0  0
   -3.2992   -1.7333    0.7347 H   0  0
   -1.9096   -2.7483    0.4266 H   0  0
   -2.2682   -1.3141   -1.4766 H   0  0
   -2.3262    0.1274   -0.4835 H   0  0
    2.3554   -0.9668    0.1859 H   0  0
    2.3226    0.4244    1.2547 H   0  0
    0.3088    1.0489    4.5704 H   0  0
    0.1592    1.5667    2.8990 H   0  0
    1.8094    1.9399   -0.5284 H   0  0
    3.2550    1.0367   -0.9098 H   0  0
    1.6319   -0.4049    3.0949 H   0  0
    0.3919   -1.2896    3.9367 H   0  0
   -0.6484    2.0346   -0.9430 H   0  0
   -1.6000    1.6408   -2.3774 H   0  0
   -2.1652    0.8495    1.6341 H   0  0
   -3.3030   -0.1037    2.5678 H   0  0
    2.4846    2.2826   -2.9958 H   0  0
   -1.7824   -1.9921    2.6938 H   0  0
   -0.0528    0.8058    0.7810 H   0  0
    0.0722   -1.6783   -0.9783 H   0  0
   -2.0469    1.6363    3.8865 H   0  0
    1.9057   -1.0660   -3.6055 H   0  0
    2.2685   -1.5379   -1.9342 H   0  0
    3.3701   -0.4573   -2.8099 H   0  0
    0.2494   -2.9554    0.7269 H   0  0
    0.3022   -3.1251    2.4920 H   0  0
    1.6847   -2.4274    1.6261 H   0  0
   -0.1140   -1.3132   -3.1696 H   0  0
  1  2  2  0
  1  3  1  0
  2  4  1  0
  2 14  1  0
  3 27  2  0
  3 28  1  0
  4 28  1  0
  5 12  1  0
  5 14  1  0
  6  7  1  0
  6 15  1  0
  7 17  1  0
  8 10  1  0
  8 16  1  0
  9 11  1  0
  9 18  1  0
 10 19  1  0
 11 20  1  0
 12 21  1  0
 13 15  1  0
 13 18  1  0
 14 19  1  0
 15 20  1  0
 16 17  1  0
 16 20  1  0
 17 21  1  0
 18 25  1  0
 19 21  1  0
 19 22  1  0
 20 23  1  0
 21 29  1  0
 24 26  2  0
 25 26  2  0
  1 30  1  0
  4 31  1  0
  4 32  1  0
  5 33  1  0
  5 34  1  0
  6 35  1  0
  6 36  1  0
  7 37  1  0
  7 38  1  0
  8 39  1  0
  8 40  1  0
  9 41  1  0
  9 42  1  0
 10 43  1  0
 10 44  1  0
 11 45  1  0
 11 46  1  0
 12 47  1  0
 12 48  1  0
 13 49  1  0
 13 50  1  0
 14 51  1  0
 15 52  1  0
 16 53  1  0
 17 54  1  0
 18 55  1  0
 22 56  1  0
 22 57  1  0
 22 58  1  0
 23 59  1  0
 23 60  1  0
 23 61  1  0
 29 62  1  0
M  CHG  2  24  -1  26   1
M  END
> <Name>
BR010202

$$$$
BR010203
  SciTegic05062102053D

111117  0  0  1  0            999 V2000
    2.9686   -5.3226   -3.0293 C   0  0
    2.8119   -5.9150   -4.2571 C   0  0
   -3.5063    2.0019    3.8514 C   0  0
   -2.2798    2.5171    3.8582 C   0  0
   -4.3990    3.0445    4.3602 C   0  0
   -0.6290  -12.6243   -3.9476 C   0  0
   -3.6346   -9.5589   -3.0908 C   0  0
    3.0012  -11.2143   -3.8309 C   0  0
   -2.2627   -5.5604   -1.6044 C   0  0
   -2.2862    3.9056    4.3621 C   0  0
   -1.0941    0.3287    3.7037 C   0  0
   -1.3021   -1.2462   -2.0709 C   0  0
   -1.6808   -0.9233   -0.6345 C   0  0
    1.2747    1.4461    0.2859 C   0  0
    2.9302   -1.7470   -2.5705 C   0  0
    0.8675    1.7392    1.7285 C   0  0
    2.5611   -0.5792   -1.6602 C   0  0
   -1.2628   -0.3756    2.3500 C   0  0
    0.7206   -2.7532   -1.7415 C   0  0
   -1.0106    1.8406    3.4258 C   0  0  1  0  0  0
    0.2094   -1.4044   -2.2823 C   0  0  2  0  0  0
    0.5674    0.1921   -0.2661 C   0  0  1  0  0  0
   -0.9683    0.3453   -0.1375 C   0  0  2  0  0  0
    2.1918   -3.0245   -2.1323 C   0  0  1  0  0  0
   -0.4584  -10.2691   -4.0367 C   0  0  1  0  0  0
   -1.3679   -9.1221   -3.5959 C   0  0  1  0  0  0
    1.0121   -9.9396   -3.7793 C   0  0  2  0  0  0
   -0.8727   -7.7886   -4.1606 C   0  0  1  0  0  0
    1.3711   -8.5503   -4.3062 C   0  0  1  0  0  0
   -0.6635    1.9367    1.9065 C   0  0  2  0  0  0
    1.0431   -0.2026   -1.7189 C   0  0  1  0  0  0
   -1.4331    0.7337    1.2946 C   0  0  2  0  0  0
   -1.0403  -13.7567   -3.0561 C   0  0
   -4.9632   -9.8435   -3.7231 C   0  0
    3.7307  -12.2533   -4.6273 C   0  0
   -2.0668   -5.6509   -0.1213 C   0  0
   -1.0616    3.2965    1.2967 C   0  0
    0.8850    0.9814   -2.7068 C   0  0
    3.2735   -7.2322   -4.7139 C   0  0
   -1.6851   -6.6053   -3.6436 C   0  0
    2.1159   -5.0788   -5.0853 N   0  0
    1.8327   -3.9734   -4.4050 N   0  0
    2.3449   -4.1214   -3.1726 N   0  0
   -5.6049    2.9293    4.4953 O   0  0
   -0.1959  -12.7684   -5.0828 O   0  0
   -3.4523   -9.4846   -1.8831 O   0  0
    3.4276  -10.7197   -2.7961 O   0  0
   -2.9356   -4.6997   -2.1554 O   0  0
   -3.6648    4.1565    4.6554 O   0  0
    0.4848   -7.5691   -3.7731 O   0  0
   -2.8391    1.0201    1.2442 O   0  0
   -0.8134  -11.4389   -3.2974 O   0  0
   -2.6862   -9.4000   -4.0609 O   0  0
    1.8134  -10.9204   -4.4366 O   0  0
   -1.5845   -6.5721   -2.2317 O   0  0
    2.7013   -8.2648   -3.9067 O   0  0
    3.4446   -5.6351   -2.1106 H   0  0
   -3.8159    1.0192    3.5405 H   0  0
   -1.7005    4.0183    5.2790 H   0  0
   -1.9456    4.6230    3.6099 H   0  0
   -1.9092    0.0618    4.3865 H   0  0
   -0.1676   -0.0180    4.1778 H   0  0
   -1.8229   -2.1582   -2.3873 H   0  0
   -1.6765   -0.4475   -2.7233 H   0  0
   -2.7678   -0.7919   -0.5834 H   0  0
   -1.4389   -1.7786    0.0067 H   0  0
    1.0560    2.3206   -0.3344 H   0  0
    2.3619    1.3127    0.2601 H   0  0
    2.7042   -1.4937   -3.6142 H   0  0
    4.0127   -1.9215   -2.5283 H   0  0
    1.2326    0.9183    2.3584 H   0  0
    1.3992    2.6346    2.0754 H   0  0
    2.8458   -0.8624   -0.6383 H   0  0
    3.1853    0.2867   -1.9136 H   0  0
   -0.3774   -0.9925    2.1672 H   0  0
   -2.1289   -1.0466    2.3827 H   0  0
    0.6524   -2.7538   -0.6466 H   0  0
    0.0740   -3.5707   -2.0853 H   0  0
   -0.2058    2.2769    4.0315 H   0  0
    0.3470   -1.4474   -3.3730 H   0  0
    0.8591   -0.6416    0.3872 H   0  0
   -1.2843    1.1605   -0.8031 H   0  0
    2.7160   -3.4630   -1.2461 H   0  0
   -0.6265  -10.5083   -5.0943 H   0  0
   -1.3988   -9.0938   -2.4990 H   0  0
    1.2294  -10.0154   -2.7063 H   0  0
   -0.9417   -7.7856   -5.2565 H   0  0
    1.3458   -8.5286   -5.4031 H   0  0
   -0.1853  -14.0917   -2.4637 H   0  0
   -1.4372  -14.5777   -3.6586 H   0  0
   -1.8245  -13.4151   -2.3744 H   0  0
   -5.4928   -8.9063   -3.9112 H   0  0
   -5.5518  -10.4949   -3.0721 H   0  0
   -4.8084  -10.3543   -4.6779 H   0  0
    3.4503  -13.2509   -4.2805 H   0  0
    4.8092  -12.1020   -4.5348 H   0  0
    3.4560  -12.1608   -5.6821 H   0  0
   -2.8483   -6.2754    0.3186 H   0  0
   -2.0814   -4.6496    0.3165 H   0  0
   -1.0956   -6.1081    0.0889 H   0  0
   -2.1289    3.4399    1.4179 H   0  0
   -0.8067    3.3002    0.2434 H   0  0
   -0.5233    4.0853    1.8090 H   0  0
   -0.1604    1.2529   -2.7576 H   0  0
    1.2384    0.6699   -3.6801 H   0  0
    1.4711    1.8150   -2.3450 H   0  0
    2.9958   -7.4371   -5.7658 H   0  0
    4.3746   -7.3332   -4.6592 H   0  0
   -2.7312   -6.7198   -3.9277 H   0  0
   -1.2919   -5.6756   -4.0549 H   0  0
   -2.9449    1.7162    0.5817 H   0  0
  1  2  2  0
  1 43  1  0
  2 39  1  0
  2 41  1  0
  3  4  2  0
  3  5  1  0
  4 10  1  0
  4 20  1  0
  5 44  2  0
  5 49  1  0
  6 33  1  0
  6 45  2  0
  6 52  1  0
  7 34  1  0
  7 46  2  0
  7 53  1  0
  8 35  1  0
  8 47  2  0
  8 54  1  0
  9 36  1  0
  9 48  2  0
  9 55  1  0
 10 49  1  0
 11 18  1  0
 11 20  1  0
 12 13  1  0
 12 21  1  0
 13 23  1  0
 14 16  1  0
 14 22  1  0
 15 17  1  0
 15 24  1  0
 16 30  1  0
 17 31  1  0
 18 32  1  0
 19 21  1  0
 19 24  1  0
 20 30  1  0
 21 31  1  0
 22 23  1  0
 22 31  1  0
 23 32  1  0
 24 43  1  0
 25 26  1  0
 25 27  1  0
 25 52  1  0
 26 28  1  0
 26 53  1  0
 27 29  1  0
 27 54  1  0
 28 40  1  0
 28 50  1  0
 29 50  1  0
 29 56  1  0
 30 32  1  0
 30 37  1  0
 31 38  1  0
 32 51  1  0
 39 56  1  0
 40 55  1  0
 41 42  2  0
 42 43  1  0
  1 57  1  0
  3 58  1  0
 10 59  1  0
 10 60  1  0
 11 61  1  0
 11 62  1  0
 12 63  1  0
 12 64  1  0
 13 65  1  0
 13 66  1  0
 14 67  1  0
 14 68  1  0
 15 69  1  0
 15 70  1  0
 16 71  1  0
 16 72  1  0
 17 73  1  0
 17 74  1  0
 18 75  1  0
 18 76  1  0
 19 77  1  0
 19 78  1  0
 20 79  1  0
 21 80  1  0
 22 81  1  0
 23 82  1  0
 24 83  1  0
 25 84  1  0
 26 85  1  0
 27 86  1  0
 28 87  1  0
 29 88  1  0
 33 89  1  0
 33 90  1  0
 33 91  1  0
 34 92  1  0
 34 93  1  0
 34 94  1  0
 35 95  1  0
 35 96  1  0
 35 97  1  0
 36 98  1  0
 36 99  1  0
 36100  1  0
 37101  1  0
 37102  1  0
 37103  1  0
 38104  1  0
 38105  1  0
 38106  1  0
 39107  1  0
 39108  1  0
 40109  1  0
 40110  1  0
 51111  1  0
M  END
> <Name>
BR010203

$$$$
BR010204
  SciTegic05062102053D

111117  0  0  1  0            999 V2000
    2.9686   -5.3226   -3.0293 C   0  0
    2.8119   -5.9150   -4.2571 C   0  0
   -3.5063    2.0019    3.8514 C   0  0
   -2.2798    2.5171    3.8582 C   0  0
   -4.3990    3.0445    4.3602 C   0  0
    1.1014  -14.0281   -4.9635 C   0  0
    0.4175  -12.3214   -8.4190 C   0  0
    0.6646   -9.6850   -2.7337 C   0  0
    4.1893  -11.7306  -10.5246 C   0  0
   -2.2862    3.9056    4.3621 C   0  0
   -1.0941    0.3287    3.7037 C   0  0
   -1.3021   -1.2462   -2.0709 C   0  0
   -1.6808   -0.9233   -0.6345 C   0  0
    1.2747    1.4461    0.2859 C   0  0
    2.9302   -1.7470   -2.5705 C   0  0
    0.8675    1.7392    1.7285 C   0  0
    2.5611   -0.5792   -1.6602 C   0  0
   -1.2628   -0.3756    2.3500 C   0  0
    0.7206   -2.7532   -1.7415 C   0  0
   -1.0106    1.8406    3.4258 C   0  0  1  0  0  0
    0.2094   -1.4044   -2.2823 C   0  0  2  0  0  0
    0.5674    0.1921   -0.2661 C   0  0  1  0  0  0
   -0.9683    0.3453   -0.1375 C   0  0  2  0  0  0
    2.1918   -3.0245   -2.1323 C   0  0  1  0  0  0
    1.8474  -11.8230   -5.3697 C   0  0  1  0  0  0
    2.1106  -11.7467   -6.8740 C   0  0  2  0  0  0
    1.5355  -10.4411   -4.7961 C   0  0  2  0  0  0
    3.1810  -10.6876   -7.1599 C   0  0  1  0  0  0
    2.5993   -9.4258   -5.2200 C   0  0  1  0  0  0
   -0.6635    1.9367    1.9065 C   0  0  2  0  0  0
    1.0431   -0.2026   -1.7189 C   0  0  1  0  0  0
   -1.4331    0.7337    1.2946 C   0  0  2  0  0  0
   -0.1317  -14.8420   -4.7129 C   0  0
   -0.8588  -11.8252   -9.0280 C   0  0
    0.7499   -9.9005   -1.2530 C   0  0
    4.6554  -13.0899  -10.9499 C   0  0
   -1.0616    3.2965    1.2967 C   0  0
    0.8850    0.9814   -2.7068 C   0  0
    3.2735   -7.2322   -4.7139 C   0  0
    3.4483  -10.4998   -8.6484 C   0  0
    2.1159   -5.0788   -5.0853 N   0  0
    1.8327   -3.9734   -4.4050 N   0  0
    2.3449   -4.1214   -3.1726 N   0  0
   -5.6049    2.9293    4.4953 O   0  0
    2.2318  -14.4940   -5.0121 O   0  0
    0.9352  -13.3957   -8.6930 O   0  0
   -0.0671   -8.8608   -3.2651 O   0  0
    4.0878  -10.7735  -11.2801 O   0  0
   -3.6648    4.1565    4.6554 O   0  0
    2.7641   -9.4200   -6.6374 O   0  0
   -2.8391    1.0201    1.2442 O   0  0
    0.7632  -12.7142   -5.1238 O   0  0
    0.8906  -11.3988   -7.5324 O   0  0
    1.5163  -10.5395   -3.3724 O   0  0
    3.9020  -11.7295   -9.1852 O   0  0
    2.1755   -8.1460   -4.7806 O   0  0
    3.4446   -5.6351   -2.1106 H   0  0
   -3.8159    1.0192    3.5405 H   0  0
   -1.7005    4.0183    5.2790 H   0  0
   -1.9456    4.6230    3.6099 H   0  0
   -1.9092    0.0618    4.3865 H   0  0
   -0.1676   -0.0180    4.1778 H   0  0
   -1.8229   -2.1582   -2.3873 H   0  0
   -1.6765   -0.4475   -2.7233 H   0  0
   -2.7678   -0.7919   -0.5834 H   0  0
   -1.4389   -1.7786    0.0067 H   0  0
    1.0560    2.3206   -0.3344 H   0  0
    2.3619    1.3127    0.2601 H   0  0
    2.7042   -1.4937   -3.6142 H   0  0
    4.0127   -1.9215   -2.5283 H   0  0
    1.2326    0.9183    2.3584 H   0  0
    1.3992    2.6346    2.0754 H   0  0
    2.8458   -0.8624   -0.6383 H   0  0
    3.1853    0.2867   -1.9136 H   0  0
   -0.3774   -0.9925    2.1672 H   0  0
   -2.1289   -1.0466    2.3827 H   0  0
    0.6524   -2.7538   -0.6466 H   0  0
    0.0740   -3.5707   -2.0853 H   0  0
   -0.2058    2.2769    4.0315 H   0  0
    0.3470   -1.4474   -3.3730 H   0  0
    0.8591   -0.6416    0.3872 H   0  0
   -1.2843    1.1605   -0.8031 H   0  0
    2.7160   -3.4630   -1.2461 H   0  0
    2.7259  -12.2445   -4.8649 H   0  0
    2.4115  -12.7318   -7.2486 H   0  0
    0.5350  -10.1168   -5.1072 H   0  0
    4.1239  -10.9720   -6.6752 H   0  0
    3.5588   -9.6395   -4.7324 H   0  0
   -0.3312  -14.8924   -3.6397 H   0  0
   -0.0053  -15.8447   -5.1290 H   0  0
   -0.9858  -14.3670   -5.2043 H   0  0
   -1.7092  -12.1523   -8.4247 H   0  0
   -0.9486  -12.1938  -10.0529 H   0  0
   -0.8482  -10.7316   -9.0515 H   0  0
    0.0228  -10.6561   -0.9456 H   0  0
    0.5706   -8.9577   -0.7300 H   0  0
    1.7519  -10.2557   -0.9954 H   0  0
    5.7411  -13.1589  -10.8468 H   0  0
    4.3535  -13.2791  -11.9832 H   0  0
    4.1955  -13.8479  -10.3092 H   0  0
   -2.1289    3.4399    1.4179 H   0  0
   -0.8067    3.3002    0.2434 H   0  0
   -0.5233    4.0853    1.8090 H   0  0
   -0.1604    1.2529   -2.7576 H   0  0
    1.2384    0.6699   -3.6801 H   0  0
    1.4711    1.8150   -2.3450 H   0  0
    3.7383   -7.1935   -5.7180 H   0  0
    4.0339   -7.6681   -4.0375 H   0  0
    4.2148   -9.7384   -8.7972 H   0  0
    2.5315  -10.2016   -9.1582 H   0  0
   -2.9449    1.7162    0.5817 H   0  0
  1  2  2  0
  1 43  1  0
  2 39  1  0
  2 41  1  0
  3  4  2  0
  3  5  1  0
  4 10  1  0
  4 20  1  0
  5 44  2  0
  5 49  1  0
  6 33  1  0
  6 45  2  0
  6 52  1  0
  7 34  1  0
  7 46  2  0
  7 53  1  0
  8 35  1  0
  8 47  2  0
  8 54  1  0
  9 36  1  0
  9 48  2  0
  9 55  1  0
 10 49  1  0
 11 18  1  0
 11 20  1  0
 12 13  1  0
 12 21  1  0
 13 23  1  0
 14 16  1  0
 14 22  1  0
 15 17  1  0
 15 24  1  0
 16 30  1  0
 17 31  1  0
 18 32  1  0
 19 21  1  0
 19 24  1  0
 20 30  1  0
 21 31  1  0
 22 23  1  0
 22 31  1  0
 23 32  1  0
 24 43  1  0
 25 26  1  0
 25 27  1  0
 25 52  1  0
 26 28  1  0
 26 53  1  0
 27 29  1  0
 27 54  1  0
 28 40  1  0
 28 50  1  0
 29 50  1  0
 29 56  1  0
 30 32  1  0
 30 37  1  0
 31 38  1  0
 32 51  1  0
 39 56  1  0
 40 55  1  0
 41 42  2  0
 42 43  1  0
  1 57  1  0
  3 58  1  0
 10 59  1  0
 10 60  1  0
 11 61  1  0
 11 62  1  0
 12 63  1  0
 12 64  1  0
 13 65  1  0
 13 66  1  0
 14 67  1  0
 14 68  1  0
 15 69  1  0
 15 70  1  0
 16 71  1  0
 16 72  1  0
 17 73  1  0
 17 74  1  0
 18 75  1  0
 18 76  1  0
 19 77  1  0
 19 78  1  0
 20 79  1  0
 21 80  1  0
 22 81  1  0
 23 82  1  0
 24 83  1  0
 25 84  1  0
 26 85  1  0
 27 86  1  0
 28 87  1  0
 29 88  1  0
 33 89  1  0
 33 90  1  0
 33 91  1  0
 34 92  1  0
 34 93  1  0
 34 94  1  0
 35 95  1  0
 35 96  1  0
 35 97  1  0
 36 98  1  0
 36 99  1  0
 36100  1  0
 37101  1  0
 37102  1  0
 37103  1  0
 38104  1  0
 38105  1  0
 38106  1  0
 39107  1  0
 39108  1  0
 40109  1  0
 40110  1  0
 51111  1  0
M  END
> <Name>
BR010204

$$$$
BR010205
  SciTegic05062102053D

111117  0  0  1  0            999 V2000
    0.3659    1.8591    1.7901 C   0  0
   -0.9654    1.5313    1.8462 C   0  0
   10.5376    3.2770    7.2784 C   0  0
   10.8234    2.3506    6.3674 C   0  0
   11.7941    3.9634    7.5831 C   0  0
   -2.0461    2.4429   -4.8516 C   0  0
    0.0736    5.7404   -4.2807 C   0  0
   -5.3811    3.8345   -2.3168 C   0  0
    0.7821    6.0696    1.4475 C   0  0
   12.2591    2.3674    6.0204 C   0  0
    8.7479    1.0135    6.7186 C   0  0
    4.4333    3.8550    3.6889 C   0  0
    5.5019    3.4939    4.7079 C   0  0
    7.6142    1.0159    2.5646 C   0  0
    3.2232    0.4827    1.3274 C   0  0
    8.6645    0.6696    3.6180 C   0  0
    4.7296    0.5496    1.5616 C   0  0
    7.4685    1.7143    6.2400 C   0  0
    3.0811    1.7031    3.5796 C   0  0
    9.8689    1.3821    5.7299 C   0  0  1  0  0  0
    4.0013    2.6717    2.8127 C   0  0  2  0  0  0
    6.3558    1.6458    3.1948 C   0  0  1  0  0  0
    6.7434    2.8909    4.0301 C   0  0  2  0  0  0
    2.4652    0.6237    2.6596 C   0  0  1  0  0  0
   -1.8078    3.6585   -2.8399 C   0  0  1  0  0  0
   -1.2034    5.0041   -2.4344 C   0  0  1  0  0  0
   -3.0803    3.3720   -2.0410 C   0  0  1  0  0  0
   -1.0357    5.0684   -0.9111 C   0  0  1  0  0  0
   -2.8303    3.5164   -0.5407 C   0  0  2  0  0  0
    9.1146    1.8941    4.4622 C   0  0  2  0  0  0
    5.2059    1.9202    2.1484 C   0  0  1  0  0  0
    7.8758    2.6168    5.0598 C   0  0  2  0  0  0
   -2.4075    2.5918   -6.2984 C   0  0
    1.4774    5.8356   -4.7969 C   0  0
   -6.3400    4.9128   -2.7217 C   0  0
    0.7648    6.1081    2.9456 C   0  0
    9.9941    2.8059    3.5822 C   0  0
    5.7099    2.7923    0.9702 C   0  0
   -2.1229    2.2730    1.3296 C   0  0
   -0.5636    6.4471   -0.4579 C   0  0
   -1.1170    0.3332    2.4875 N   0  0
    0.0900   -0.0986    2.8364 N   0  0
    0.9777    0.8178    2.4175 N   0  0
   11.9175    4.8776    8.3798 O   0  0
   -1.7297    1.3822   -4.3301 O   0  0
   -0.9098    6.1342   -4.8930 O   0  0
   -5.7201    2.7121   -1.9668 O   0  0
    1.7580    5.7513    0.7815 O   0  0
   12.7954    3.4156    6.8345 O   0  0
   -2.2714    4.8006   -0.2431 O   0  0
    8.2663    3.8719    5.6371 O   0  0
   -2.1272    3.6557   -4.2287 O   0  0
    0.0748    5.1570   -3.0458 O   0  0
   -4.1024    4.3029   -2.4016 O   0  0
   -0.4408    6.4395    0.9524 O   0  0
   -2.0079    2.4474   -0.0852 O   0  0
    0.9057    2.6999    1.3779 H   0  0
    9.5844    3.5038    7.7237 H   0  0
   12.7594    1.4281    6.2734 H   0  0
   12.4301    2.6108    4.9678 H   0  0
    8.9801    1.2897    7.7537 H   0  0
    8.5871   -0.0716    6.7169 H   0  0
    3.5632    4.2745    4.2085 H   0  0
    4.8139    4.6594    3.0472 H   0  0
    5.7749    4.4003    5.2605 H   0  0
    5.0842    2.7947    5.4412 H   0  0
    8.0562    1.6887    1.8234 H   0  0
    7.3527    0.0958    2.0301 H   0  0
    2.9209    1.2585    0.6123 H   0  0
    2.9631   -0.4765    0.8622 H   0  0
    8.2545   -0.1199    4.2603 H   0  0
    9.5351    0.2219    3.1215 H   0  0
    4.9880   -0.2697    2.2452 H   0  0
    5.2507    0.3284    0.6219 H   0  0
    6.7422    0.9491    5.9485 H   0  0
    7.0269    2.2892    7.0621 H   0  0
    3.6600    1.1957    4.3612 H   0  0
    2.2922    2.2602    4.1009 H   0  0
   10.4529    0.4836    5.4921 H   0  0
    3.3791    3.1104    2.0185 H   0  0
    5.9564    0.9029    3.8988 H   0  0
    7.1238    3.6567    3.3399 H   0  0
    2.4918   -0.3560    3.1999 H   0  0
   -1.0758    2.8581   -2.6796 H   0  0
   -1.8436    5.8212   -2.7906 H   0  0
   -3.4489    2.3690   -2.2824 H   0  0
   -0.2827    4.3412   -0.5834 H   0  0
   -3.7843    3.4572   -0.0045 H   0  0
   -3.4827    2.4464   -6.4290 H   0  0
   -1.8454    1.8707   -6.8973 H   0  0
   -2.1487    3.5999   -6.6349 H   0  0
    1.9228    6.7842   -4.4873 H   0  0
    1.4788    5.7463   -5.8862 H   0  0
    2.0732    5.0183   -4.3803 H   0  0
   -6.6294    5.4996   -1.8464 H   0  0
   -7.2188    4.4687   -3.1959 H   0  0
   -5.8548    5.5776   -3.4423 H   0  0
    1.0657    7.0990    3.2946 H   0  0
    1.4322    5.3399    3.3442 H   0  0
   -0.2496    5.9062    3.3018 H   0  0
   10.3112    3.6622    4.1659 H   0  0
    9.4163    3.1366    2.7271 H   0  0
   10.8601    2.2467    3.2479 H   0  0
    6.0427    3.7439    1.3612 H   0  0
    4.8955    2.9381    0.2741 H   0  0
    6.5293    2.2796    0.4855 H   0  0
   -3.0808    1.7538    1.5260 H   0  0
   -2.2158    3.2771    1.7863 H   0  0
   -1.2903    7.2038   -0.7527 H   0  0
    0.4050    6.6731   -0.9032 H   0  0
    8.5216    4.4375    4.8957 H   0  0
  1  2  2  0
  1 43  1  0
  2 39  1  0
  2 41  1  0
  3  4  2  0
  3  5  1  0
  4 10  1  0
  4 20  1  0
  5 44  2  0
  5 49  1  0
  6 33  1  0
  6 45  2  0
  6 52  1  0
  7 34  1  0
  7 46  2  0
  7 53  1  0
  8 35  1  0
  8 47  2  0
  8 54  1  0
  9 36  1  0
  9 48  2  0
  9 55  1  0
 10 49  1  0
 11 18  1  0
 11 20  1  0
 12 13  1  0
 12 21  1  0
 13 23  1  0
 14 16  1  0
 14 22  1  0
 15 17  1  0
 15 24  1  0
 16 30  1  0
 17 31  1  0
 18 32  1  0
 19 21  1  0
 19 24  1  0
 20 30  1  0
 21 31  1  0
 22 23  1  0
 22 31  1  0
 23 32  1  0
 24 43  1  0
 25 26  1  0
 25 27  1  0
 25 52  1  0
 26 28  1  0
 26 53  1  0
 27 29  1  0
 27 54  1  0
 28 40  1  0
 28 50  1  0
 29 50  1  0
 29 56  1  0
 30 32  1  0
 30 37  1  0
 31 38  1  0
 32 51  1  0
 39 56  1  0
 40 55  1  0
 41 42  2  0
 42 43  1  0
  1 57  1  0
  3 58  1  0
 10 59  1  0
 10 60  1  0
 11 61  1  0
 11 62  1  0
 12 63  1  0
 12 64  1  0
 13 65  1  0
 13 66  1  0
 14 67  1  0
 14 68  1  0
 15 69  1  0
 15 70  1  0
 16 71  1  0
 16 72  1  0
 17 73  1  0
 17 74  1  0
 18 75  1  0
 18 76  1  0
 19 77  1  0
 19 78  1  0
 20 79  1  0
 21 80  1  0
 22 81  1  0
 23 82  1  0
 24 83  1  0
 25 84  1  0
 26 85  1  0
 27 86  1  0
 28 87  1  0
 29 88  1  0
 33 89  1  0
 33 90  1  0
 33 91  1  0
 34 92  1  0
 34 93  1  0
 34 94  1  0
 35 95  1  0
 35 96  1  0
 35 97  1  0
 36 98  1  0
 36 99  1  0
 36100  1  0
 37101  1  0
 37102  1  0
 37103  1  0
 38104  1  0
 38105  1  0
 38106  1  0
 39107  1  0
 39108  1  0
 40109  1  0
 40110  1  0
 51111  1  0
M  END
> <Name>
BR010205

$$$$
BR010206
  SciTegic05062102053D

147154  0  0  1  0            999 V2000
   -4.2054   -8.6124   -4.3743 C   0  0
   -4.2994   -8.5884   -5.7431 C   0  0
   -0.4881  -12.2445    5.5124 C   0  0
    0.4686  -12.9696    4.9389 C   0  0
   -0.7668  -12.8706    6.8058 C   0  0
    6.5379   -5.5100   -8.5826 C   0  0
   -0.9568   -2.5976   -8.8876 C   0  0
    6.3321   -2.0853   -6.8930 C   0  0
    3.1607   -7.2077   -9.5269 C   0  0
   -4.4748   -3.5819   -7.5329 C   0  0
    0.7949   -0.8871   -4.4506 C   0  0
    1.1996   -8.1716   -4.1612 C   0  0
    0.8734  -14.0981    5.8017 C   0  0
    1.1870  -11.2501    3.2231 C   0  0
    0.2256  -12.2202   -2.6045 C   0  0
    0.8802  -11.9475   -1.2600 C   0  0
   -1.8020  -13.5257    1.0827 C   0  0
   -4.0291  -11.6780   -2.4858 C   0  0
   -1.1316  -13.2117    2.4179 C   0  0
   -3.4742  -12.3918   -1.2565 C   0  0
    1.0845  -11.1813    1.6922 C   0  0
   -1.7143  -10.5751   -2.5696 C   0  0
    1.1000  -12.7355    3.6040 C   0  0  2  0  0  0
   -1.3000  -12.0589   -2.5832 C   0  0  2  0  0  0
   -1.2370  -12.6556   -0.0570 C   0  0  1  0  0  0
    0.2957  -12.8460   -0.1567 C   0  0  2  0  0  0
   -3.2371  -10.3874   -2.7616 C   0  0  1  0  0  0
    4.6259   -4.6085   -7.5265 C   0  0  1  0  0  0
   -1.1091   -4.7640   -7.9562 C   0  0  1  0  0  0
    4.2633   -3.2230   -6.9918 C   0  0  1  0  0  0
   -0.1154   -5.6887   -7.2529 C   0  0  1  0  0  0
    3.4206   -5.2806   -8.1844 C   0  0  2  0  0  0
   -2.4965   -4.8567   -7.3208 C   0  0  2  0  0  0
    2.9881   -3.2832   -6.1476 C   0  0  1  0  0  0
   -0.6928   -7.0989   -7.1107 C   0  0  1  0  0  0
    2.1836   -5.2027   -7.2897 C   0  0  1  0  0  0
   -2.9322   -6.3115   -7.1466 C   0  0  1  0  0  0
    0.4050  -13.4135    2.3872 C   0  0  2  0  0  0
   -1.9912  -12.8620   -1.4285 C   0  0  1  0  0  0
    1.0356  -12.6401    1.1933 C   0  0  2  0  0  0
    7.5690   -5.2195   -9.6307 C   0  0
   -0.3952   -1.2304   -8.6398 C   0  0
    7.4098   -1.6514   -5.9462 C   0  0
    3.5926   -8.6369   -9.6570 C   0  0
   -5.3598   -2.9137   -8.5410 C   0  0
   -0.4471   -1.1927   -3.6695 C   0  0
    1.2955   -7.4672   -2.8419 C   0  0
    0.7306  -14.9197    2.3627 C   0  0
   -2.0113  -14.3556   -1.8430 C   0  0
   -4.8593   -7.5463   -6.6134 C   0  0
    2.5282   -1.9002   -5.6969 C   0  0
    0.2210   -8.0186   -6.3067 C   0  0
   -3.7668   -9.7366   -6.2605 N   0  0
   -3.3412  -10.4821   -5.2465 N   0  0
   -3.6052   -9.8063   -4.1165 N   0  0
   -1.5921  -12.4763    7.6115 O   0  0
    6.5041   -6.5388   -7.9213 O   0  0
   -1.6049   -2.9026   -9.8796 O   0  0
    6.3467   -1.8630   -8.0961 O   0  0
    2.3964   -6.6496  -10.3026 O   0  0
   -4.6843   -3.5775   -6.3274 O   0  0
    1.2378    0.2409   -4.6197 O   0  0
    1.7638   -9.2267   -4.4172 O   0  0
    0.0426  -13.9588    6.9592 O   0  0
    1.9240   -3.8527   -6.9122 O   0  0
   -1.9455   -7.0459   -6.4258 O   0  0
    2.3898  -13.0757    0.9822 O   0  0
    5.6674   -4.4629   -8.4934 O   0  0
   -0.6329   -3.4213   -7.8491 O   0  0
    5.3565   -2.7521   -6.2078 O   0  0
    3.7471   -6.6480   -8.4284 O   0  0
   -3.4240   -4.1795   -8.1676 O   0  0
    1.3434   -2.0453   -4.9353 O   0  0
    0.3982   -7.4624   -5.0167 O   0  0
    1.0829   -5.7177   -8.0239 O   0  0
   -4.1549   -6.3156   -6.4285 O   0  0
   -4.4974   -7.9184   -3.5988 H   0  0
   -0.9806  -11.3672    5.1302 H   0  0
    0.6773  -15.0686    5.3369 H   0  0
    1.9222  -14.0340    6.1060 H   0  0
    2.1326  -10.8173    3.5700 H   0  0
    0.3804  -10.6590    3.6738 H   0  0
    0.6623  -11.5575   -3.3617 H   0  0
    0.4770  -13.2405   -2.9204 H   0  0
    1.9586  -12.1216   -1.3568 H   0  0
    0.7564  -10.8895   -1.0031 H   0  0
   -1.6743  -14.5898    0.8594 H   0  0
   -2.8788  -13.3577    1.1942 H   0  0
   -4.0072  -12.3525   -3.3515 H   0  0
   -5.0849  -11.4275   -2.3232 H   0  0
   -1.3832  -12.1794    2.6924 H   0  0
   -1.5823  -13.8457    3.1918 H   0  0
   -3.5592  -11.6963   -0.4111 H   0  0
   -4.1235  -13.2407   -1.0093 H   0  0
    0.1789  -10.6247    1.4307 H   0  0
    1.9400  -10.6330    1.2815 H   0  0
   -1.4341  -10.1294   -1.6071 H   0  0
   -1.1583  -10.0179   -3.3343 H   0  0
    2.1276  -13.1149    3.6777 H   0  0
   -1.6483  -12.4587   -3.5472 H   0  0
   -1.4093  -11.6098    0.2331 H   0  0
    0.4882  -13.8824   -0.4668 H   0  0
   -3.5843   -9.5889   -2.0586 H   0  0
    5.0339   -5.2356   -6.7239 H   0  0
   -1.1537   -4.9921   -9.0285 H   0  0
    4.1384   -2.5361   -7.8388 H   0  0
    0.1293   -5.2664   -6.2697 H   0  0
    3.2227   -4.8197   -9.1604 H   0  0
   -2.5014   -4.3325   -6.3567 H   0  0
    3.1515   -3.8891   -5.2466 H   0  0
   -0.8388   -7.5561   -8.0983 H   0  0
    2.3053   -5.8297   -6.3973 H   0  0
   -3.1210   -6.7832   -8.1193 H   0  0
    7.2246   -5.5850  -10.6012 H   0  0
    8.5181   -5.6875   -9.3572 H   0  0
    7.7216   -4.1385   -9.6995 H   0  0
   -1.1226   -0.6238   -8.0948 H   0  0
   -0.1347   -0.7585   -9.5905 H   0  0
    0.5116   -1.3152   -8.0338 H   0  0
    7.1808   -0.6575   -5.5541 H   0  0
    8.3753   -1.6509   -6.4584 H   0  0
    7.4609   -2.3534   -5.1088 H   0  0
    4.4987   -8.6966  -10.2651 H   0  0
    2.7891   -9.2281  -10.1034 H   0  0
    3.8116   -9.0413   -8.6645 H   0  0
   -5.0309   -1.8835   -8.6984 H   0  0
   -6.3973   -2.9390   -8.1983 H   0  0
   -5.2948   -3.4496   -9.4924 H   0  0
   -1.3156   -1.1763   -4.3324 H   0  0
   -0.5651   -0.4664   -2.8614 H   0  0
   -0.3626   -2.1909   -3.2301 H   0  0
    2.1390   -6.7726   -2.8528 H   0  0
    1.4089   -8.1989   -2.0381 H   0  0
    0.3776   -6.8983   -2.6670 H   0  0
    1.8065  -15.0493    2.3413 H   0  0
    0.2888  -15.3632    1.4780 H   0  0
    0.3212  -15.3851    3.2518 H   0  0
   -0.9919  -14.6948   -1.9656 H   0  0
   -2.5514  -14.4491   -2.7750 H   0  0
   -2.5039  -14.9240   -1.0662 H   0  0
   -4.7949   -7.8109   -7.6866 H   0  0
   -5.9298   -7.3563   -6.4052 H   0  0
    2.3236   -1.2747   -6.5659 H   0  0
    3.2976   -1.4344   -5.0812 H   0  0
    1.1900   -8.1031   -6.7987 H   0  0
   -0.2320   -9.0057   -6.2144 H   0  0
    2.7591  -12.4779    0.3188 H   0  0
  1  2  2  0
  1 55  1  0
  2 50  1  0
  2 53  1  0
  3  4  2  0
  3  5  1  0
  4 13  1  0
  4 23  1  0
  5 56  2  0
  5 64  1  0
  6 41  1  0
  6 57  2  0
  6 68  1  0
  7 42  1  0
  7 58  2  0
  7 69  1  0
  8 43  1  0
  8 59  2  0
  8 70  1  0
  9 44  1  0
  9 60  2  0
  9 71  1  0
 10 45  1  0
 10 61  2  0
 10 72  1  0
 11 46  1  0
 11 62  2  0
 11 73  1  0
 12 47  1  0
 12 63  2  0
 12 74  1  0
 13 64  1  0
 14 21  1  0
 14 23  1  0
 15 16  1  0
 15 24  1  0
 16 26  1  0
 17 19  1  0
 17 25  1  0
 18 20  1  0
 18 27  1  0
 19 38  1  0
 20 39  1  0
 21 40  1  0
 22 24  1  0
 22 27  1  0
 23 38  1  0
 24 39  1  0
 25 26  1  0
 25 39  1  0
 26 40  1  0
 27 55  1  0
 28 30  1  0
 28 32  1  0
 28 68  1  0
 29 31  1  0
 29 33  1  0
 29 69  1  0
 30 34  1  0
 30 70  1  0
 31 35  1  0
 31 75  1  0
 32 36  1  0
 32 71  1  0
 33 37  1  0
 33 72  1  0
 34 51  1  0
 34 65  1  0
 35 52  1  0
 35 66  1  0
 36 65  1  0
 36 75  1  0
 37 66  1  0
 37 76  1  0
 38 40  1  0
 38 48  1  0
 39 49  1  0
 40 67  1  0
 50 76  1  0
 51 73  1  0
 52 74  1  0
 53 54  2  0
 54 55  1  0
  1 77  1  0
  3 78  1  0
 13 79  1  0
 13 80  1  0
 14 81  1  0
 14 82  1  0
 15 83  1  0
 15 84  1  0
 16 85  1  0
 16 86  1  0
 17 87  1  0
 17 88  1  0
 18 89  1  0
 18 90  1  0
 19 91  1  0
 19 92  1  0
 20 93  1  0
 20 94  1  0
 21 95  1  0
 21 96  1  0
 22 97  1  0
 22 98  1  0
 23 99  1  0
 24100  1  0
 25101  1  0
 26102  1  0
 27103  1  0
 28104  1  0
 29105  1  0
 30106  1  0
 31107  1  0
 32108  1  0
 33109  1  0
 34110  1  0
 35111  1  0
 36112  1  0
 37113  1  0
 41114  1  0
 41115  1  0
 41116  1  0
 42117  1  0
 42118  1  0
 42119  1  0
 43120  1  0
 43121  1  0
 43122  1  0
 44123  1  0
 44124  1  0
 44125  1  0
 45126  1  0
 45127  1  0
 45128  1  0
 46129  1  0
 46130  1  0
 46131  1  0
 47132  1  0
 47133  1  0
 47134  1  0
 48135  1  0
 48136  1  0
 48137  1  0
 49138  1  0
 49139  1  0
 49140  1  0
 50141  1  0
 50142  1  0
 51143  1  0
 51144  1  0
 52145  1  0
 52146  1  0
 67147  1  0
M  END
> <Name>
BR010206

$$$$
BR010207
  SciTegic05062102053D

119127  0  0  1  0            999 V2000
   -2.8680   -4.8520    1.3665 C   0  0
   -1.5964   -5.1420    0.8311 C   0  0
   -4.0331   -5.2816    0.7246 C   0  0
   -1.4648   -5.8675   -0.3564 C   0  0
   -2.8674   -3.5911   -4.2800 C   0  0
   -3.8791   -5.9959   -0.4457 C   0  0
   -2.6280   -6.2816   -0.9723 C   0  0
   -3.0857   -4.5706   -5.2160 C   0  0
    4.4281    1.2738    2.8868 C   0  0
   -4.8872   -6.5712   -1.3351 C   0  0
   -2.8183   -7.0438   -2.2062 C   0  0
    3.3225    1.9011    3.2793 C   0  0
    5.5457    2.1683    3.1930 C   0  0
   -4.1089  -10.5290   -1.4183 C   0  0
   -5.0979  -12.4246   -4.7025 C   0  0
   -7.0531  -10.4925   -8.2434 C   0  0
    3.6353    3.2235    3.8581 C   0  0
    1.8044   -0.1263    3.3241 C   0  0
   -2.6916   -0.6150   -0.5968 C   0  0
   -1.8756   -0.5231    0.6824 C   0  0
    1.2285    1.3940   -0.6823 C   0  0
   -0.2456   -1.3744   -4.0394 C   0  0
    2.0354    1.4447    0.6128 C   0  0
    0.3618   -0.3588   -3.0760 C   0  0
    0.5980   -0.5593    2.4779 C   0  0
   -1.3577   -2.3217   -1.9304 C   0  0
    1.9176    1.3989    3.1814 C   0  0  2  0  0  0
   -1.8378   -0.8602   -1.8478 C   0  0  2  0  0  0
    0.1280    0.3166   -0.6260 C   0  0  1  0  0  0
   -0.7997    0.5720    0.5862 C   0  0  2  0  0  0
   -0.6781   -2.6425   -3.2818 C   0  0  1  0  0  0
   -4.8071   -7.8815   -3.4563 C   0  0  2  0  0  0
   -4.3884   -9.3549   -3.4499 C   0  0  2  0  0  0
   -4.8465  -10.0751   -4.7201 C   0  0  1  0  0  0
   -4.4524   -9.2769   -5.9655 C   0  0  1  0  0  0
   -4.4520   -7.2113   -4.7880 C   0  0  1  0  0  0
    1.1612    1.7276    1.8613 C   0  0  2  0  0  0
   -0.6465    0.1480   -1.9913 C   0  0  1  0  0  0
   -0.0356    0.7354    1.9287 C   0  0  2  0  0  0
   -4.8698  -11.1592   -0.2914 C   0  0
   -4.3221  -13.7066   -4.7305 C   0  0
   -8.5341  -10.4822   -8.0143 C   0  0
    0.7152    3.2029    1.8595 C   0  0
   -1.2311    1.4980   -2.4798 C   0  0
   -4.3584   -5.0701   -5.7521 C   0  0
   -4.9932   -9.9021   -7.2474 C   0  0
   -1.8881   -5.0771   -5.6388 N   0  0
   -0.9220   -4.4379   -4.9882 N   0  0
   -1.5113   -3.5475   -4.1739 N   0  0
   -4.1829   -7.1793   -2.3541 N   0  0
   -6.0874   -6.4908   -1.1507 O   0  0
   -1.9066   -7.4429   -2.9067 O   0  0
    6.7191    1.9245    2.9707 O   0  0
   -2.8879  -10.5118   -1.4954 O   0  0
   -6.3189  -12.3636   -4.6531 O   0  0
   -6.5193  -10.9249   -9.2560 O   0  0
    5.0612    3.3096    3.7635 O   0  0
   -4.9890   -7.9556   -5.8802 O   0  0
   -1.0022    1.1914    2.8907 O   0  0
   -4.9833   -9.9925   -2.3177 O   0  0
   -4.2382  -11.3636   -4.7407 O   0  0
   -6.4057   -9.9534   -7.1630 O   0  0
   -5.0068   -5.9063   -4.7902 O   0  0
   -2.9408   -4.2861    2.2917 H   0  0
   -0.7071   -4.7952    1.3509 H   0  0
   -5.0103   -5.0581    1.1362 H   0  0
   -0.4874   -6.0901   -0.7676 H   0  0
   -3.5255   -2.9515   -3.7089 H   0  0
    4.5191    0.3026    2.4320 H   0  0
    3.1901    4.0436    3.2873 H   0  0
    3.3429    3.2974    4.9096 H   0  0
    1.6639   -0.4063    4.3747 H   0  0
    2.7059   -0.6432    2.9732 H   0  0
   -3.4411   -1.4091   -0.4927 H   0  0
   -3.2588    0.3159   -0.7228 H   0  0
   -2.5571   -0.3107    1.5148 H   0  0
   -1.4188   -1.4965    0.8931 H   0  0
    0.7967    2.3815   -0.8739 H   0  0
    1.9205    1.1911   -1.5070 H   0  0
   -1.0900   -0.9225   -4.5758 H   0  0
    0.4914   -1.6441   -4.8062 H   0  0
    2.5702    0.4924    0.7199 H   0  0
    2.8111    2.2140    0.5104 H   0  0
    1.2262   -0.8398   -2.5996 H   0  0
    0.7691    0.4828   -3.6496 H   0  0
    0.9544   -1.2164    1.6781 H   0  0
   -0.1048   -1.1353    3.0906 H   0  0
   -0.6316   -2.5105   -1.1300 H   0  0
   -2.1944   -3.0079   -1.7477 H   0  0
    1.3703    1.8474    4.0208 H   0  0
   -2.5213   -0.7205   -2.6985 H   0  0
    0.6360   -0.6401   -0.4417 H   0  0
   -1.3335    1.5163    0.4105 H   0  0
    0.2243   -3.2730   -3.0807 H   0  0
   -5.8869   -7.8046   -3.2758 H   0  0
   -3.3010   -9.4469   -3.3319 H   0  0
   -5.9338  -10.2184   -4.6755 H   0  0
   -3.3597   -9.2203   -6.0575 H   0  0
   -3.3648   -7.1151   -4.9047 H   0  0
   -5.0383  -10.4239    0.4993 H   0  0
   -4.3171  -12.0198    0.0939 H   0  0
   -5.8405  -11.5054   -0.6582 H   0  0
   -4.1718  -14.0266   -5.7645 H   0  0
   -4.8538  -14.4744   -4.1628 H   0  0
   -3.3432  -13.5482   -4.2688 H   0  0
   -8.8406  -11.4116   -7.5281 H   0  0
   -9.0558  -10.3549   -8.9662 H   0  0
   -8.7941   -9.6446   -7.3607 H   0  0
    0.1052    3.3896    2.7356 H   0  0
    0.1399    3.3979    0.9619 H   0  0
    1.5930    3.8383    1.8796 H   0  0
   -1.9305    1.8608   -1.7393 H   0  0
   -1.7349    1.3363   -3.4228 H   0  0
   -0.4197    2.2018   -2.6048 H   0  0
   -5.0588   -4.2528   -6.0114 H   0  0
   -4.2202   -5.6641   -6.6761 H   0  0
   -4.6022  -10.9132   -7.3622 H   0  0
   -4.7054   -9.2968   -8.1072 H   0  0
   -1.6490    0.4783    2.9737 H   0  0
  1  2  2  0
  1  3  1  0
  2  4  1  0
  3  6  2  0
  4  7  2  0
  5  8  2  0
  5 49  1  0
  6  7  1  0
  6 10  1  0
  7 11  1  0
  8 45  1  0
  8 47  1  0
  9 12  2  0
  9 13  1  0
 10 50  1  0
 10 51  2  0
 11 50  1  0
 11 52  2  0
 12 17  1  0
 12 27  1  0
 13 53  2  0
 13 57  1  0
 14 40  1  0
 14 54  2  0
 14 60  1  0
 15 41  1  0
 15 55  2  0
 15 61  1  0
 16 42  1  0
 16 56  2  0
 16 62  1  0
 17 57  1  0
 18 25  1  0
 18 27  1  0
 19 20  1  0
 19 28  1  0
 20 30  1  0
 21 23  1  0
 21 29  1  0
 22 24  1  0
 22 31  1  0
 23 37  1  0
 24 38  1  0
 25 39  1  0
 26 28  1  0
 26 31  1  0
 27 37  1  0
 28 38  1  0
 29 30  1  0
 29 38  1  0
 30 39  1  0
 31 49  1  0
 32 33  1  0
 32 36  1  0
 32 50  1  0
 33 34  1  0
 33 60  1  0
 34 35  1  0
 34 61  1  0
 35 46  1  0
 35 58  1  0
 36 58  1  0
 36 63  1  0
 37 39  1  0
 37 43  1  0
 38 44  1  0
 39 59  1  0
 45 63  1  0
 46 62  1  0
 47 48  2  0
 48 49  1  0
  1 64  1  0
  2 65  1  0
  3 66  1  0
  4 67  1  0
  5 68  1  0
  9 69  1  0
 17 70  1  0
 17 71  1  0
 18 72  1  0
 18 73  1  0
 19 74  1  0
 19 75  1  0
 20 76  1  0
 20 77  1  0
 21 78  1  0
 21 79  1  0
 22 80  1  0
 22 81  1  0
 23 82  1  0
 23 83  1  0
 24 84  1  0
 24 85  1  0
 25 86  1  0
 25 87  1  0
 26 88  1  0
 26 89  1  0
 27 90  1  0
 28 91  1  0
 29 92  1  0
 30 93  1  0
 31 94  1  0
 32 95  1  0
 33 96  1  0
 34 97  1  0
 35 98  1  0
 36 99  1  0
 40100  1  0
 40101  1  0
 40102  1  0
 41103  1  0
 41104  1  0
 41105  1  0
 42106  1  0
 42107  1  0
 42108  1  0
 43109  1  0
 43110  1  0
 43111  1  0
 44112  1  0
 44113  1  0
 44114  1  0
 45115  1  0
 45116  1  0
 46117  1  0
 46118  1  0
 59119  1  0
M  END
> <Name>
BR010207

$$$$
BR010208
  SciTegic05062102053D

105111  0  0  1  0            999 V2000
   -1.1685   -4.7651   -4.6759 C   0  0
   -2.2720   -5.1360   -5.4024 C   0  0
    4.5442    1.2458    2.8069 C   0  0
    3.4312    1.7970    3.2834 C   0  0
    5.6311    2.1814    3.0999 C   0  0
    0.2752   -9.9800  -11.6731 C   0  0
   -2.7403   -7.8198  -12.9254 C   0  0
    1.1017   -6.7403   -8.0856 C   0  0
    3.7086    3.1061    3.9088 C   0  0
    2.0183   -0.3054    3.3060 C   0  0
   -2.6461   -0.8450   -0.4059 C   0  0
   -1.7701   -0.7697    0.8341 C   0  0
    1.1615    1.3640   -0.5892 C   0  0
   -0.3481   -1.3208   -3.9982 C   0  0
    2.0311    1.3970    0.6652 C   0  0
    0.2582   -0.3202   -3.0184 C   0  0
    0.7922   -0.7608    2.5009 C   0  0
   -1.3014   -2.4187   -1.8845 C   0  0
    2.0492    1.2284    3.2314 C   0  0  2  0  0  0
   -1.8474   -0.9890   -1.7081 C   0  0  2  0  0  0
    0.1193    0.2302   -0.5302 C   0  0  1  0  0  0
   -0.7555    0.3823    0.7374 C   0  0  2  0  0  0
   -0.6781   -2.6425   -3.2818 C   0  0  1  0  0  0
   -1.0468   -8.7731  -10.1305 C   0  0  2  0  0  0
   -2.4419   -8.6966  -10.7515 C   0  0  1  0  0  0
   -0.8122   -7.6106   -9.1643 C   0  0  1  0  0  0
   -3.4968   -8.5724   -9.6471 C   0  0  2  0  0  0
   -1.9680   -7.4948   -8.1668 C   0  0  2  0  0  0
    1.2101    1.5777    1.9676 C   0  0  2  0  0  0
   -0.7159    0.0843   -1.8620 C   0  0  1  0  0  0
    0.0684    0.5234    2.0466 C   0  0  2  0  0  0
    1.3083   -9.8112  -12.7456 C   0  0
   -2.7695   -6.5368  -13.6995 C   0  0
    2.3455   -7.1456   -7.3544 C   0  0
   -4.9120   -8.4204  -10.1912 C   0  0
    0.6931    3.0267    2.0588 C   0  0
   -1.3904    1.4235   -2.2554 C   0  0
   -2.4994   -6.3627   -6.1771 C   0  0
   -3.2255   -4.1595   -5.3205 N   0  0
   -2.7448   -3.1825   -4.5593 N   0  0
   -1.5113   -3.5475   -4.1739 N   0  0
    6.8019    2.0086    2.8081 O   0  0
   -0.1790  -11.0609  -11.3232 O   0  0
   -2.9130   -8.9242  -13.4228 O   0  0
    0.7833   -5.5794   -8.3048 O   0  0
    5.1217    3.2694    3.7478 O   0  0
   -3.2227   -7.4196   -8.8414 O   0  0
   -0.8681    0.8851    3.0762 O   0  0
   -0.0668   -8.7589  -11.1647 O   0  0
   -2.4960   -7.5549  -11.6096 O   0  0
    0.4024   -7.8530   -8.4556 O   0  0
   -1.7626   -6.3186   -7.4020 O   0  0
   -0.2163   -5.2378   -4.4804 H   0  0
    4.6587    0.3022    2.3019 H   0  0
    3.1948    3.9273    3.4009 H   0  0
    3.4679    3.1169    4.9758 H   0  0
    1.9464   -0.6398    4.3477 H   0  0
    2.9245   -0.7590    2.8865 H   0  0
   -3.3495   -1.6804   -0.3031 H   0  0
   -3.2638    0.0603   -0.4588 H   0  0
   -2.4171   -0.6306    1.7086 H   0  0
   -1.2560   -1.7270    0.9749 H   0  0
    0.6725    2.3357   -0.7115 H   0  0
    1.8187    1.2346   -1.4560 H   0  0
   -1.2402   -0.8888   -4.4697 H   0  0
    0.3604   -1.5172   -4.8126 H   0  0
    2.6167    0.4695    0.6998 H   0  0
    2.7619    2.2089    0.5615 H   0  0
    1.1687   -0.7775   -2.6091 H   0  0
    0.5935    0.5664   -3.5705 H   0  0
    1.1382   -1.3617    1.6538 H   0  0
    0.1511   -1.3993    3.1194 H   0  0
   -0.5263   -2.6063   -1.1311 H   0  0
   -2.0930   -3.1546   -1.6937 H   0  0
    1.5250    1.6097    4.1174 H   0  0
   -2.5802   -0.8460   -2.5161 H   0  0
    0.6823   -0.7066   -0.4175 H   0  0
   -1.3432    1.3050    0.6339 H   0  0
    0.2632   -3.2345   -3.1562 H   0  0
   -0.9337   -9.7260   -9.5981 H   0  0
   -2.6184   -9.5800  -11.3759 H   0  0
   -0.6768   -6.6751   -9.7205 H   0  0
   -3.4699   -9.4621   -9.0045 H   0  0
   -1.9682   -8.3434   -7.4708 H   0  0
    0.8195   -9.6845  -13.7147 H   0  0
    1.9733  -10.6784  -12.7597 H   0  0
    1.9052   -8.9186  -12.5368 H   0  0
   -3.7870   -6.1387  -13.7194 H   0  0
   -2.4025   -6.7077  -14.7147 H   0  0
   -2.1182   -5.8049  -13.2131 H   0  0
    2.1391   -7.2190   -6.2838 H   0  0
    3.1407   -6.4205   -7.5448 H   0  0
    2.6747   -8.1249   -7.7139 H   0  0
   -4.9713   -7.5429  -10.8351 H   0  0
   -5.6170   -8.3037   -9.3682 H   0  0
   -5.1856   -9.3029  -10.7694 H   0  0
    0.1210    3.1419    2.9721 H   0  0
    0.0630    3.2326    1.2013 H   0  0
    1.5387    3.7047    2.0659 H   0  0
   -2.0673    1.7159   -1.4646 H   0  0
   -1.9340    1.2792   -3.1789 H   0  0
   -0.6220    2.1728   -2.3865 H   0  0
   -2.1861   -7.2732   -5.6307 H   0  0
   -3.5672   -6.5065   -6.4314 H   0  0
   -1.4741    0.1367    3.1568 H   0  0
  1  2  2  0
  1 41  1  0
  2 38  1  0
  2 39  1  0
  3  4  2  0
  3  5  1  0
  4  9  1  0
  4 19  1  0
  5 42  2  0
  5 46  1  0
  6 32  1  0
  6 43  2  0
  6 49  1  0
  7 33  1  0
  7 44  2  0
  7 50  1  0
  8 34  1  0
  8 45  2  0
  8 51  1  0
  9 46  1  0
 10 17  1  0
 10 19  1  0
 11 12  1  0
 11 20  1  0
 12 22  1  0
 13 15  1  0
 13 21  1  0
 14 16  1  0
 14 23  1  0
 15 29  1  0
 16 30  1  0
 17 31  1  0
 18 20  1  0
 18 23  1  0
 19 29  1  0
 20 30  1  0
 21 22  1  0
 21 30  1  0
 22 31  1  0
 23 41  1  0
 24 25  1  0
 24 26  1  0
 24 49  1  0
 25 27  1  0
 25 50  1  0
 26 28  1  0
 26 51  1  0
 27 35  1  0
 27 47  1  0
 28 47  1  0
 28 52  1  0
 29 31  1  0
 29 36  1  0
 30 37  1  0
 31 48  1  0
 38 52  1  0
 39 40  2  0
 40 41  1  0
  1 53  1  0
  3 54  1  0
  9 55  1  0
  9 56  1  0
 10 57  1  0
 10 58  1  0
 11 59  1  0
 11 60  1  0
 12 61  1  0
 12 62  1  0
 13 63  1  0
 13 64  1  0
 14 65  1  0
 14 66  1  0
 15 67  1  0
 15 68  1  0
 16 69  1  0
 16 70  1  0
 17 71  1  0
 17 72  1  0
 18 73  1  0
 18 74  1  0
 19 75  1  0
 20 76  1  0
 21 77  1  0
 22 78  1  0
 23 79  1  0
 24 80  1  0
 25 81  1  0
 26 82  1  0
 27 83  1  0
 28 84  1  0
 32 85  1  0
 32 86  1  0
 32 87  1  0
 33 88  1  0
 33 89  1  0
 33 90  1  0
 34 91  1  0
 34 92  1  0
 34 93  1  0
 35 94  1  0
 35 95  1  0
 35 96  1  0
 36 97  1  0
 36 98  1  0
 36 99  1  0
 37100  1  0
 37101  1  0
 37102  1  0
 38103  1  0
 38104  1  0
 48105  1  0
M  END
> <Name>
BR010208

$$$$
BR010209
  SciTegic05062102053D

105111  0  0  1  0            999 V2000
    4.0167   -1.9899    0.1069 C   0  0
    3.3782   -1.4770    1.2080 C   0  0
   11.5363   -2.1383   -8.1508 C   0  0
   12.2072   -1.1188   -7.6213 C   0  0
   11.8262   -2.1275   -9.5856 C   0  0
    5.7362   -3.7539    7.1849 C   0  0
    3.7131   -0.9690    8.8847 C   0  0
    2.1232   -5.8710    5.6747 C   0  0
   12.9673   -0.3854   -8.6538 C   0  0
   12.1082   -1.8896   -5.2103 C   0  0
    8.9168    1.1871   -1.1885 C   0  0
   10.0470    0.4932   -1.9313 C   0  0
    8.5975    0.6118   -5.5449 C   0  0
    5.0537    0.0558   -2.6744 C   0  0
    9.7370   -0.1135   -6.2566 C   0  0
    6.0833    0.2878   -3.7765 C   0  0
   11.3950   -1.3536   -3.9601 C   0  0
    7.0954   -0.5872   -1.2602 C   0  0
   12.2378   -0.7086   -6.1837 C   0  0  2  0  0  0
    7.5242    0.8200   -1.7178 C   0  0  2  0  0  0
    8.6223    0.3583   -4.0249 C   0  0  1  0  0  0
    9.9908    0.7842   -3.4407 C   0  0  2  0  0  0
    5.6186   -0.8925   -1.6016 C   0  0  1  0  0  0
    3.7944   -2.7289    6.3118 C   0  0  2  0  0  0
    2.7636   -1.7438    6.8644 C   0  0  2  0  0  0
    3.1326   -3.7537    5.3890 C   0  0  2  0  0  0
    1.9435   -1.1393    5.7163 C   0  0  2  0  0  0
    2.2957   -3.0606    4.3153 C   0  0  1  0  0  0
   11.1373    0.2955   -5.7325 C   0  0  2  0  0  0
    7.3877    0.9891   -3.2698 C   0  0  1  0  0  0
   11.2038    0.1606   -4.1838 C   0  0  2  0  0  0
    6.2769   -4.4401    8.4026 C   0  0
    4.4487    0.1885    9.4891 C   0  0
    1.1858   -6.6348    6.5601 C   0  0
    0.8048   -0.2611    6.2275 C   0  0
   11.4815    1.7151   -6.2243 C   0  0
    7.2581    2.5051   -3.5667 C   0  0
    2.4765   -2.1506    2.1513 C   0  0
    3.6996   -0.1558    1.3515 N   0  0
    4.5254    0.1731    0.3641 N   0  0
    4.7141   -0.9280   -0.3811 N   0  0
   11.3815   -2.9221  -10.3959 O   0  0
    6.3837   -3.5560    6.1657 O   0  0
    3.3968   -1.9773    9.5015 O   0  0
    2.6699   -6.3426    4.6869 O   0  0
   12.6689   -1.0904   -9.8635 O   0  0
    1.3518   -2.1644    4.9116 O   0  0
   12.3733    0.8282   -3.6793 O   0  0
    4.4355   -3.3955    7.3969 O   0  0
    3.4619   -0.7179    7.5658 O   0  0
    2.2606   -4.5969    6.1435 O   0  0
    3.1524   -2.4072    3.3851 O   0  0
    4.0362   -2.9695   -0.3495 H   0  0
   10.8991   -2.8487   -7.6532 H   0  0
   12.6369    0.6524   -8.7554 H   0  0
   14.0466   -0.4192   -8.4787 H   0  0
   13.0966   -2.2887   -4.9538 H   0  0
   11.5303   -2.7178   -5.6383 H   0  0
    8.9861    0.9507   -0.1196 H   0  0
    9.0575    2.2727   -1.2636 H   0  0
   11.0006    0.8399   -1.5153 H   0  0
    9.9977   -0.5851   -1.7433 H   0  0
    8.6641    1.6827   -5.7617 H   0  0
    7.6516    0.2650   -5.9750 H   0  0
    4.7501    1.0162   -2.2381 H   0  0
    4.1444   -0.3833   -3.1036 H   0  0
    9.5789   -1.1935   -6.1424 H   0  0
    9.6604    0.0882   -7.3325 H   0  0
    6.3202   -0.6923   -4.2111 H   0  0
    5.6210    0.8673   -4.5850 H   0  0
   10.4406   -1.8793   -3.8542 H   0  0
   11.9912   -1.5668   -3.0656 H   0  0
    7.7228   -1.3370   -1.7578 H   0  0
    7.2748   -0.7085   -0.1843 H   0  0
   13.2213   -0.2513   -6.0141 H   0  0
    6.8322    1.5193   -1.2255 H   0  0
    8.5425   -0.7289   -3.8878 H   0  0
   10.0806    1.8739   -3.5497 H   0  0
    5.5544   -1.9455   -1.9752 H   0  0
    4.5741   -2.1786    5.7722 H   0  0
    2.1165   -2.2597    7.5849 H   0  0
    3.8998   -4.3928    4.9378 H   0  0
    2.5827   -0.5106    5.0834 H   0  0
    1.7143   -3.8099    3.7665 H   0  0
    6.7208   -3.7037    9.0770 H   0  0
    7.0167   -5.1890    8.1087 H   0  0
    5.4604   -4.9453    8.9268 H   0  0
    5.5260    0.0386    9.3847 H   0  0
    4.1743    0.2933   10.5419 H   0  0
    4.1721    1.1077    8.9646 H   0  0
    1.7468   -7.1228    7.3609 H   0  0
    0.6360   -7.3721    5.9698 H   0  0
    0.4670   -5.9433    7.0094 H   0  0
    0.1425   -0.8470    6.8631 H   0  0
    0.2352    0.1325    5.3869 H   0  0
    1.2088    0.5697    6.8043 H   0  0
   12.4615    1.9908   -5.8526 H   0  0
   10.7375    2.4093   -5.8512 H   0  0
   11.4828    1.7238   -7.3081 H   0  0
    8.1535    3.0033   -3.2215 H   0  0
    6.3921    2.8874   -3.0442 H   0  0
    7.1420    2.6404   -4.6331 H   0  0
    1.5769   -1.5477    2.3816 H   0  0
    2.1084   -3.1190    1.7611 H   0  0
   12.4213    0.6037   -2.7406 H   0  0
  1  2  2  0
  1 41  1  0
  2 38  1  0
  2 39  1  0
  3  4  2  0
  3  5  1  0
  4  9  1  0
  4 19  1  0
  5 42  2  0
  5 46  1  0
  6 32  1  0
  6 43  2  0
  6 49  1  0
  7 33  1  0
  7 44  2  0
  7 50  1  0
  8 34  1  0
  8 45  2  0
  8 51  1  0
  9 46  1  0
 10 17  1  0
 10 19  1  0
 11 12  1  0
 11 20  1  0
 12 22  1  0
 13 15  1  0
 13 21  1  0
 14 16  1  0
 14 23  1  0
 15 29  1  0
 16 30  1  0
 17 31  1  0
 18 20  1  0
 18 23  1  0
 19 29  1  0
 20 30  1  0
 21 22  1  0
 21 30  1  0
 22 31  1  0
 23 41  1  0
 24 25  1  0
 24 26  1  0
 24 49  1  0
 25 27  1  0
 25 50  1  0
 26 28  1  0
 26 51  1  0
 27 35  1  0
 27 47  1  0
 28 47  1  0
 28 52  1  0
 29 31  1  0
 29 36  1  0
 30 37  1  0
 31 48  1  0
 38 52  1  0
 39 40  2  0
 40 41  1  0
  1 53  1  0
  3 54  1  0
  9 55  1  0
  9 56  1  0
 10 57  1  0
 10 58  1  0
 11 59  1  0
 11 60  1  0
 12 61  1  0
 12 62  1  0
 13 63  1  0
 13 64  1  0
 14 65  1  0
 14 66  1  0
 15 67  1  0
 15 68  1  0
 16 69  1  0
 16 70  1  0
 17 71  1  0
 17 72  1  0
 18 73  1  0
 18 74  1  0
 19 75  1  0
 20 76  1  0
 21 77  1  0
 22 78  1  0
 23 79  1  0
 24 80  1  0
 25 81  1  0
 26 82  1  0
 27 83  1  0
 28 84  1  0
 32 85  1  0
 32 86  1  0
 32 87  1  0
 33 88  1  0
 33 89  1  0
 33 90  1  0
 34 91  1  0
 34 92  1  0
 34 93  1  0
 35 94  1  0
 35 95  1  0
 35 96  1  0
 36 97  1  0
 36 98  1  0
 36 99  1  0
 37100  1  0
 37101  1  0
 37102  1  0
 38103  1  0
 38104  1  0
 48105  1  0
M  END
> <Name>
BR010209

$$$$
BR010210
  SciTegic05062102053D

 91 97  0  0  1  0            999 V2000
    2.9686   -5.3226   -3.0293 C   0  0
    2.8119   -5.9150   -4.2571 C   0  0
   -3.5063    2.0019    3.8514 C   0  0
   -2.2798    2.5171    3.8582 C   0  0
   -4.3990    3.0445    4.3602 C   0  0
   -2.2862    3.9056    4.3621 C   0  0
   -1.0941    0.3287    3.7037 C   0  0
   -1.3021   -1.2462   -2.0709 C   0  0
   -1.6808   -0.9233   -0.6345 C   0  0
    1.2747    1.4461    0.2859 C   0  0
    2.9302   -1.7470   -2.5705 C   0  0
    0.8675    1.7392    1.7285 C   0  0
    2.5611   -0.5792   -1.6602 C   0  0
   -1.2628   -0.3756    2.3500 C   0  0
    0.7206   -2.7532   -1.7415 C   0  0
   -1.0106    1.8406    3.4258 C   0  0  1  0  0  0
    0.2094   -1.4044   -2.2823 C   0  0  2  0  0  0
    0.5674    0.1921   -0.2661 C   0  0  1  0  0  0
   -0.9683    0.3453   -0.1375 C   0  0  2  0  0  0
    2.1918   -3.0245   -2.1323 C   0  0  1  0  0  0
    1.8404  -11.8297   -5.3606 C   0  0  1  0  0  0
    2.1569  -11.7636   -6.8548 C   0  0  1  0  0  0
    1.5376  -10.4411   -4.7972 C   0  0  2  0  0  0
    3.2024  -10.6832   -7.1413 C   0  0  1  0  0  0
    2.5993   -9.4258   -5.2200 C   0  0  1  0  0  0
   -0.6635    1.9367    1.9065 C   0  0  2  0  0  0
    1.0431   -0.2026   -1.7189 C   0  0  1  0  0  0
   -1.4331    0.7337    1.2946 C   0  0  2  0  0  0
   -1.0616    3.2965    1.2967 C   0  0
    0.8850    0.9814   -2.7068 C   0  0
    3.2735   -7.2322   -4.7139 C   0  0
    3.4547  -10.5057   -8.6354 C   0  0
    2.1159   -5.0788   -5.0853 N   0  0
    1.8327   -3.9734   -4.4050 N   0  0
    2.3449   -4.1214   -3.1726 N   0  0
   -5.6049    2.9293    4.4953 O   0  0
   -3.6648    4.1565    4.6554 O   0  0
    2.7529   -9.4242   -6.6374 O   0  0
    0.7000  -12.6699   -5.1755 O   0  0
    2.6389  -13.0419   -7.2612 O   0  0
    1.5050  -10.5318   -3.3736 O   0  0
   -2.8391    1.0201    1.2442 O   0  0
    4.4210   -9.4858   -8.8112 O   0  0
    2.1755   -8.1460   -4.7806 O   0  0
    3.4446   -5.6351   -2.1106 H   0  0
   -3.8159    1.0192    3.5405 H   0  0
   -1.7005    4.0183    5.2790 H   0  0
   -1.9456    4.6230    3.6099 H   0  0
   -1.9092    0.0618    4.3865 H   0  0
   -0.1676   -0.0180    4.1778 H   0  0
   -1.8229   -2.1582   -2.3873 H   0  0
   -1.6765   -0.4475   -2.7233 H   0  0
   -2.7678   -0.7919   -0.5834 H   0  0
   -1.4389   -1.7786    0.0067 H   0  0
    1.0560    2.3206   -0.3344 H   0  0
    2.3619    1.3127    0.2601 H   0  0
    2.7042   -1.4937   -3.6142 H   0  0
    4.0127   -1.9215   -2.5283 H   0  0
    1.2326    0.9183    2.3584 H   0  0
    1.3992    2.6346    2.0754 H   0  0
    2.8458   -0.8624   -0.6383 H   0  0
    3.1853    0.2867   -1.9136 H   0  0
   -0.3774   -0.9925    2.1672 H   0  0
   -2.1289   -1.0466    2.3827 H   0  0
    0.6524   -2.7538   -0.6466 H   0  0
    0.0740   -3.5707   -2.0853 H   0  0
   -0.2058    2.2769    4.0315 H   0  0
    0.3470   -1.4474   -3.3730 H   0  0
    0.8591   -0.6416    0.3872 H   0  0
   -1.2843    1.1605   -0.8031 H   0  0
    2.7160   -3.4630   -1.2461 H   0  0
    2.6656  -12.3026   -4.8135 H   0  0
    1.2291  -11.5648   -7.4067 H   0  0
    0.5403  -10.1165   -5.1202 H   0  0
    4.1605  -10.9407   -6.6708 H   0  0
    3.5601   -9.6383   -4.7344 H   0  0
   -2.1289    3.4399    1.4179 H   0  0
   -0.8067    3.3002    0.2434 H   0  0
   -0.5233    4.0853    1.8090 H   0  0
   -0.1604    1.2529   -2.7576 H   0  0
    1.2384    0.6699   -3.6801 H   0  0
    1.4711    1.8150   -2.3450 H   0  0
    3.7383   -7.1935   -5.7180 H   0  0
    4.0339   -7.6681   -4.0375 H   0  0
    2.5309  -10.2171   -9.1369 H   0  0
    3.8302  -11.4355   -9.0626 H   0  0
   -0.0238  -12.2611   -5.6732 H   0  0
    3.4350  -13.2166   -6.7357 H   0  0
    2.3806  -10.8433   -3.0983 H   0  0
   -2.9449    1.7162    0.5817 H   0  0
    4.5650   -9.3909   -9.7682 H   0  0
  1  2  2  0
  1 35  1  0
  2 31  1  0
  2 33  1  0
  3  4  2  0
  3  5  1  0
  4  6  1  0
  4 16  1  0
  5 36  2  0
  5 37  1  0
  6 37  1  0
  7 14  1  0
  7 16  1  0
  8  9  1  0
  8 17  1  0
  9 19  1  0
 10 12  1  0
 10 18  1  0
 11 13  1  0
 11 20  1  0
 12 26  1  0
 13 27  1  0
 14 28  1  0
 15 17  1  0
 15 20  1  0
 16 26  1  0
 17 27  1  0
 18 19  1  0
 18 27  1  0
 19 28  1  0
 20 35  1  0
 21 22  1  0
 21 23  1  0
 21 39  1  0
 22 24  1  0
 22 40  1  0
 23 25  1  0
 23 41  1  0
 24 32  1  0
 24 38  1  0
 25 38  1  0
 25 44  1  0
 26 28  1  0
 26 29  1  0
 27 30  1  0
 28 42  1  0
 31 44  1  0
 32 43  1  0
 33 34  2  0
 34 35  1  0
  1 45  1  0
  3 46  1  0
  6 47  1  0
  6 48  1  0
  7 49  1  0
  7 50  1  0
  8 51  1  0
  8 52  1  0
  9 53  1  0
  9 54  1  0
 10 55  1  0
 10 56  1  0
 11 57  1  0
 11 58  1  0
 12 59  1  0
 12 60  1  0
 13 61  1  0
 13 62  1  0
 14 63  1  0
 14 64  1  0
 15 65  1  0
 15 66  1  0
 16 67  1  0
 17 68  1  0
 18 69  1  0
 19 70  1  0
 20 71  1  0
 21 72  1  0
 22 73  1  0
 23 74  1  0
 24 75  1  0
 25 76  1  0
 29 77  1  0
 29 78  1  0
 29 79  1  0
 30 80  1  0
 30 81  1  0
 30 82  1  0
 31 83  1  0
 31 84  1  0
 32 85  1  0
 32 86  1  0
 39 87  1  0
 40 88  1  0
 41 89  1  0
 42 90  1  0
 43 91  1  0
M  END
> <Name>
BR010210

$$$$
BR010211
  SciTegic05062102053D

 91 97  0  0  1  0            999 V2000
    2.9686   -5.3226   -3.0293 C   0  0
    2.8119   -5.9150   -4.2571 C   0  0
   -3.5063    2.0019    3.8514 C   0  0
   -2.2798    2.5171    3.8582 C   0  0
   -4.3990    3.0445    4.3602 C   0  0
   -2.2862    3.9056    4.3621 C   0  0
   -1.0941    0.3287    3.7037 C   0  0
   -1.3021   -1.2462   -2.0709 C   0  0
   -1.6808   -0.9233   -0.6345 C   0  0
    1.2747    1.4461    0.2859 C   0  0
    2.9302   -1.7470   -2.5705 C   0  0
    0.8675    1.7392    1.7285 C   0  0
    2.5611   -0.5792   -1.6602 C   0  0
   -1.2628   -0.3756    2.3500 C   0  0
    0.7206   -2.7532   -1.7415 C   0  0
   -1.0106    1.8406    3.4258 C   0  0  1  0  0  0
    0.2094   -1.4044   -2.2823 C   0  0  2  0  0  0
    0.5674    0.1921   -0.2661 C   0  0  1  0  0  0
   -0.9683    0.3453   -0.1375 C   0  0  2  0  0  0
    2.1918   -3.0245   -2.1323 C   0  0  1  0  0  0
    1.8474  -11.8230   -5.3697 C   0  0  1  0  0  0
    2.1106  -11.7467   -6.8740 C   0  0  2  0  0  0
    1.5355  -10.4411   -4.7961 C   0  0  2  0  0  0
    3.1810  -10.6876   -7.1599 C   0  0  1  0  0  0
    2.5993   -9.4258   -5.2200 C   0  0  1  0  0  0
   -0.6635    1.9367    1.9065 C   0  0  2  0  0  0
    1.0431   -0.2026   -1.7189 C   0  0  1  0  0  0
   -1.4331    0.7337    1.2946 C   0  0  2  0  0  0
   -1.0616    3.2965    1.2967 C   0  0
    0.8850    0.9814   -2.7068 C   0  0
    3.2735   -7.2322   -4.7139 C   0  0
    3.4483  -10.4998   -8.6484 C   0  0
    2.1159   -5.0788   -5.0853 N   0  0
    1.8327   -3.9734   -4.4050 N   0  0
    2.3449   -4.1214   -3.1726 N   0  0
   -5.6049    2.9293    4.4953 O   0  0
   -3.6648    4.1565    4.6554 O   0  0
    2.7641   -9.4200   -6.6374 O   0  0
    0.7632  -12.7142   -5.1238 O   0  0
    0.8906  -11.3988   -7.5324 O   0  0
    1.5163  -10.5395   -3.3724 O   0  0
   -2.8391    1.0201    1.2442 O   0  0
    4.7107   -9.8772   -8.8062 O   0  0
    2.1755   -8.1460   -4.7806 O   0  0
    3.4446   -5.6351   -2.1106 H   0  0
   -3.8159    1.0192    3.5405 H   0  0
   -1.7005    4.0183    5.2790 H   0  0
   -1.9456    4.6230    3.6099 H   0  0
   -1.9092    0.0618    4.3865 H   0  0
   -0.1676   -0.0180    4.1778 H   0  0
   -1.8229   -2.1582   -2.3873 H   0  0
   -1.6765   -0.4475   -2.7233 H   0  0
   -2.7678   -0.7919   -0.5834 H   0  0
   -1.4389   -1.7786    0.0067 H   0  0
    1.0560    2.3206   -0.3344 H   0  0
    2.3619    1.3127    0.2601 H   0  0
    2.7042   -1.4937   -3.6142 H   0  0
    4.0127   -1.9215   -2.5283 H   0  0
    1.2326    0.9183    2.3584 H   0  0
    1.3992    2.6346    2.0754 H   0  0
    2.8458   -0.8624   -0.6383 H   0  0
    3.1853    0.2867   -1.9136 H   0  0
   -0.3774   -0.9925    2.1672 H   0  0
   -2.1289   -1.0466    2.3827 H   0  0
    0.6524   -2.7538   -0.6466 H   0  0
    0.0740   -3.5707   -2.0853 H   0  0
   -0.2058    2.2769    4.0315 H   0  0
    0.3470   -1.4474   -3.3730 H   0  0
    0.8591   -0.6416    0.3872 H   0  0
   -1.2843    1.1605   -0.8031 H   0  0
    2.7160   -3.4630   -1.2461 H   0  0
    2.7259  -12.2445   -4.8649 H   0  0
    2.4115  -12.7318   -7.2486 H   0  0
    0.5350  -10.1168   -5.1072 H   0  0
    4.1239  -10.9720   -6.6752 H   0  0
    3.5588   -9.6395   -4.7324 H   0  0
   -2.1289    3.4399    1.4179 H   0  0
   -0.8067    3.3002    0.2434 H   0  0
   -0.5233    4.0853    1.8090 H   0  0
   -0.1604    1.2529   -2.7576 H   0  0
    1.2384    0.6699   -3.6801 H   0  0
    1.4711    1.8150   -2.3450 H   0  0
    3.7383   -7.1935   -5.7180 H   0  0
    4.0339   -7.6681   -4.0375 H   0  0
    2.6778   -9.8664   -9.0894 H   0  0
    3.4596  -11.4674   -9.1513 H   0  0
    1.0309  -13.5784   -5.4732 H   0  0
    1.0936  -11.3597   -8.4786 H   0  0
    2.3974  -10.8434   -3.1066 H   0  0
   -2.9449    1.7162    0.5817 H   0  0
    4.8577   -9.7687   -9.7611 H   0  0
  1  2  2  0
  1 35  1  0
  2 31  1  0
  2 33  1  0
  3  4  2  0
  3  5  1  0
  4  6  1  0
  4 16  1  0
  5 36  2  0
  5 37  1  0
  6 37  1  0
  7 14  1  0
  7 16  1  0
  8  9  1  0
  8 17  1  0
  9 19  1  0
 10 12  1  0
 10 18  1  0
 11 13  1  0
 11 20  1  0
 12 26  1  0
 13 27  1  0
 14 28  1  0
 15 17  1  0
 15 20  1  0
 16 26  1  0
 17 27  1  0
 18 19  1  0
 18 27  1  0
 19 28  1  0
 20 35  1  0
 21 22  1  0
 21 23  1  0
 21 39  1  0
 22 24  1  0
 22 40  1  0
 23 25  1  0
 23 41  1  0
 24 32  1  0
 24 38  1  0
 25 38  1  0
 25 44  1  0
 26 28  1  0
 26 29  1  0
 27 30  1  0
 28 42  1  0
 31 44  1  0
 32 43  1  0
 33 34  2  0
 34 35  1  0
  1 45  1  0
  3 46  1  0
  6 47  1  0
  6 48  1  0
  7 49  1  0
  7 50  1  0
  8 51  1  0
  8 52  1  0
  9 53  1  0
  9 54  1  0
 10 55  1  0
 10 56  1  0
 11 57  1  0
 11 58  1  0
 12 59  1  0
 12 60  1  0
 13 61  1  0
 13 62  1  0
 14 63  1  0
 14 64  1  0
 15 65  1  0
 15 66  1  0
 16 67  1  0
 17 68  1  0
 18 69  1  0
 19 70  1  0
 20 71  1  0
 21 72  1  0
 22 73  1  0
 23 74  1  0
 24 75  1  0
 25 76  1  0
 29 77  1  0
 29 78  1  0
 29 79  1  0
 30 80  1  0
 30 81  1  0
 30 82  1  0
 31 83  1  0
 31 84  1  0
 32 85  1  0
 32 86  1  0
 39 87  1  0
 40 88  1  0
 41 89  1  0
 42 90  1  0
 43 91  1  0
M  END
> <Name>
BR010211

$$$$
BR010212
  SciTegic05062102053D

 91 97  0  0  1  0            999 V2000
   -0.0392   -0.0110    2.7799 C   0  0
   -1.1600    0.6368    2.3247 C   0  0
   10.5376    3.2770    7.2784 C   0  0
   10.8234    2.3506    6.3674 C   0  0
   11.7941    3.9634    7.5831 C   0  0
   12.2591    2.3674    6.0204 C   0  0
    8.7479    1.0135    6.7186 C   0  0
    4.4333    3.8550    3.6889 C   0  0
    5.5019    3.4939    4.7079 C   0  0
    7.6142    1.0159    2.5646 C   0  0
    3.2232    0.4827    1.3274 C   0  0
    8.6645    0.6696    3.6180 C   0  0
    4.7296    0.5496    1.5616 C   0  0
    7.4685    1.7143    6.2400 C   0  0
    3.0811    1.7031    3.5796 C   0  0
    9.8689    1.3821    5.7299 C   0  0  1  0  0  0
    4.0013    2.6717    2.8127 C   0  0  2  0  0  0
    6.3558    1.6458    3.1948 C   0  0  1  0  0  0
    6.7434    2.8909    4.0301 C   0  0  2  0  0  0
    2.4652    0.6237    2.6596 C   0  0  1  0  0  0
   -5.0309    1.8600    5.6916 C   0  0  1  0  0  0
   -5.1510    0.5037    6.3890 C   0  0  1  0  0  0
   -5.3962    1.7434    4.2109 C   0  0  1  0  0  0
   -4.3630   -0.5591    5.6131 C   0  0  1  0  0  0
   -4.6047    0.6235    3.5372 C   0  0  2  0  0  0
    9.1146    1.8941    4.4622 C   0  0  2  0  0  0
    5.2059    1.9202    2.1484 C   0  0  1  0  0  0
    7.8758    2.6168    5.0598 C   0  0  2  0  0  0
    9.9941    2.8059    3.5822 C   0  0
    5.7099    2.7923    0.9702 C   0  0
   -2.5676    0.2297    2.4239 C   0  0
   -4.5717   -1.9515    6.2022 C   0  0
   -0.7994    1.8075    1.7174 N   0  0
    0.5238    1.9092    1.7803 N   0  0
    0.9777    0.8178    2.4175 N   0  0
   11.9175    4.8776    8.3798 O   0  0
   12.7954    3.4156    6.8345 O   0  0
   -4.7734   -0.6101    4.2442 O   0  0
   -5.8962    2.8121    6.3044 O   0  0
   -4.6223    0.5972    7.7091 O   0  0
   -6.7847    1.4357    4.0739 O   0  0
    8.2663    3.8719    5.6371 O   0  0
   -3.8285   -2.8806    5.4352 O   0  0
   -3.2371    1.0021    3.4241 O   0  0
    0.1168   -0.9426    3.3052 H   0  0
    9.5844    3.5038    7.7237 H   0  0
   12.7594    1.4281    6.2734 H   0  0
   12.4301    2.6108    4.9678 H   0  0
    8.9801    1.2897    7.7537 H   0  0
    8.5871   -0.0716    6.7169 H   0  0
    3.5632    4.2745    4.2085 H   0  0
    4.8139    4.6594    3.0472 H   0  0
    5.7749    4.4003    5.2605 H   0  0
    5.0842    2.7947    5.4412 H   0  0
    8.0562    1.6887    1.8234 H   0  0
    7.3527    0.0958    2.0301 H   0  0
    2.9209    1.2585    0.6123 H   0  0
    2.9631   -0.4765    0.8622 H   0  0
    8.2545   -0.1199    4.2603 H   0  0
    9.5351    0.2219    3.1215 H   0  0
    4.9880   -0.2697    2.2452 H   0  0
    5.2507    0.3284    0.6219 H   0  0
    6.7422    0.9491    5.9485 H   0  0
    7.0269    2.2892    7.0621 H   0  0
    3.6600    1.1957    4.3612 H   0  0
    2.2922    2.2602    4.1009 H   0  0
   10.4529    0.4836    5.4921 H   0  0
    3.3791    3.1104    2.0185 H   0  0
    5.9564    0.9029    3.8988 H   0  0
    7.1238    3.6567    3.3399 H   0  0
    2.4918   -0.3560    3.1999 H   0  0
   -4.0092    2.2437    5.7971 H   0  0
   -6.2082    0.2213    6.4722 H   0  0
   -5.2210    2.7026    3.7115 H   0  0
   -3.2889   -0.3420    5.6606 H   0  0
   -4.9922    0.4609    2.5250 H   0  0
   10.3112    3.6622    4.1659 H   0  0
    9.4163    3.1366    2.7271 H   0  0
   10.8601    2.2467    3.2479 H   0  0
    6.0427    3.7439    1.3612 H   0  0
    4.8955    2.9381    0.2741 H   0  0
    6.5293    2.2796    0.4855 H   0  0
   -3.1164    0.3668    1.4721 H   0  0
   -2.6775   -0.8384    2.6934 H   0  0
   -5.6283   -2.2159    6.1646 H   0  0
   -4.2226   -1.9743    7.2343 H   0  0
   -5.7758    3.6447    5.8221 H   0  0
   -3.6927    0.8569    7.6161 H   0  0
   -6.9577    1.3742    3.1228 H   0  0
    8.5216    4.4375    4.8957 H   0  0
   -3.9761   -3.7581    5.8277 H   0  0
  1  2  2  0
  1 35  1  0
  2 31  1  0
  2 33  1  0
  3  4  2  0
  3  5  1  0
  4  6  1  0
  4 16  1  0
  5 36  2  0
  5 37  1  0
  6 37  1  0
  7 14  1  0
  7 16  1  0
  8  9  1  0
  8 17  1  0
  9 19  1  0
 10 12  1  0
 10 18  1  0
 11 13  1  0
 11 20  1  0
 12 26  1  0
 13 27  1  0
 14 28  1  0
 15 17  1  0
 15 20  1  0
 16 26  1  0
 17 27  1  0
 18 19  1  0
 18 27  1  0
 19 28  1  0
 20 35  1  0
 21 22  1  0
 21 23  1  0
 21 39  1  0
 22 24  1  0
 22 40  1  0
 23 25  1  0
 23 41  1  0
 24 32  1  0
 24 38  1  0
 25 38  1  0
 25 44  1  0
 26 28  1  0
 26 29  1  0
 27 30  1  0
 28 42  1  0
 31 44  1  0
 32 43  1  0
 33 34  2  0
 34 35  1  0
  1 45  1  0
  3 46  1  0
  6 47  1  0
  6 48  1  0
  7 49  1  0
  7 50  1  0
  8 51  1  0
  8 52  1  0
  9 53  1  0
  9 54  1  0
 10 55  1  0
 10 56  1  0
 11 57  1  0
 11 58  1  0
 12 59  1  0
 12 60  1  0
 13 61  1  0
 13 62  1  0
 14 63  1  0
 14 64  1  0
 15 65  1  0
 15 66  1  0
 16 67  1  0
 17 68  1  0
 18 69  1  0
 19 70  1  0
 20 71  1  0
 21 72  1  0
 22 73  1  0
 23 74  1  0
 24 75  1  0
 25 76  1  0
 29 77  1  0
 29 78  1  0
 29 79  1  0
 30 80  1  0
 30 81  1  0
 30 82  1  0
 31 83  1  0
 31 84  1  0
 32 85  1  0
 32 86  1  0
 39 87  1  0
 40 88  1  0
 41 89  1  0
 42 90  1  0
 43 91  1  0
M  END
> <Name>
BR010212

$$$$
BR010213
  SciTegic05062102053D

112119  0  0  1  0            999 V2000
   -1.1685   -4.7651   -4.6759 C   0  0
   -2.2720   -5.1360   -5.4024 C   0  0
    4.5442    1.2458    2.8069 C   0  0
    3.4312    1.7970    3.2834 C   0  0
    5.6311    2.1814    3.0999 C   0  0
    3.7086    3.1061    3.9088 C   0  0
    2.0183   -0.3054    3.3060 C   0  0
   -2.6461   -0.8450   -0.4059 C   0  0
   -1.7701   -0.7697    0.8341 C   0  0
    1.1615    1.3640   -0.5892 C   0  0
   -0.3481   -1.3208   -3.9982 C   0  0
    2.0311    1.3970    0.6652 C   0  0
    0.2582   -0.3202   -3.0184 C   0  0
    0.7922   -0.7608    2.5009 C   0  0
   -1.3014   -2.4187   -1.8845 C   0  0
    2.0492    1.2284    3.2314 C   0  0  2  0  0  0
   -1.8474   -0.9890   -1.7081 C   0  0  2  0  0  0
    0.1193    0.2302   -0.5302 C   0  0  1  0  0  0
   -0.7555    0.3823    0.7374 C   0  0  2  0  0  0
   -0.6781   -2.6425   -3.2818 C   0  0  1  0  0  0
   -8.4945  -13.9132   -8.7230 C   0  0  1  0  0  0
   -4.5584  -10.7583   -5.9569 C   0  0  1  0  0  0
   -9.0168  -14.0011   -7.2889 C   0  0  1  0  0  0
   -5.4619  -10.4423   -7.1489 C   0  0  1  0  0  0
   -7.0850  -13.3227   -8.7634 C   0  0  2  0  0  0
   -4.1381   -9.4821   -5.2275 C   0  0  2  0  0  0
   -8.8289  -12.6685   -6.5599 C   0  0  1  0  0  0
   -4.8466   -9.3455   -8.0212 C   0  0  1  0  0  0
   -6.9935  -12.0444   -7.9303 C   0  0  1  0  0  0
   -3.6235   -8.4263   -6.2059 C   0  0  1  0  0  0
    1.2101    1.5777    1.9676 C   0  0  2  0  0  0
   -0.7159    0.0843   -1.8620 C   0  0  1  0  0  0
    0.0684    0.5234    2.0466 C   0  0  2  0  0  0
    0.6931    3.0267    2.0588 C   0  0
   -1.3904    1.4235   -2.2554 C   0  0
   -2.4994   -6.3627   -6.1771 C   0  0
   -9.2277  -12.7534   -5.0898 C   0  0
   -5.7760   -8.9188   -9.1532 C   0  0
   -3.2255   -4.1595   -5.3205 N   0  0
   -2.7448   -3.1825   -4.5593 N   0  0
   -1.5113   -3.5475   -4.1739 N   0  0
    6.8019    2.0086    2.8081 O   0  0
    5.1217    3.2694    3.7478 O   0  0
   -7.4549  -12.2794   -6.6019 O   0  0
   -4.5842   -8.1844   -7.2311 O   0  0
   -8.4677  -15.2297   -9.2771 O   0  0
   -5.2774  -11.5997   -5.0535 O   0  0
  -10.3982  -14.3479   -7.3423 O   0  0
   -6.7595  -13.0307  -10.1217 O   0  0
   -3.1067   -9.8147   -4.2993 O   0  0
   -0.8681    0.8851    3.0762 O   0  0
   -9.0138  -11.4883   -4.4910 O   0  0
   -5.1378   -7.8993   -9.9003 O   0  0
   -5.6330  -11.6396   -7.9030 O   0  0
   -3.3897   -7.2341   -5.4748 O   0  0
   -0.2163   -5.2378   -4.4804 H   0  0
    4.6587    0.3022    2.3019 H   0  0
    3.1948    3.9273    3.4009 H   0  0
    3.4679    3.1169    4.9758 H   0  0
    1.9464   -0.6398    4.3477 H   0  0
    2.9245   -0.7590    2.8865 H   0  0
   -3.3495   -1.6804   -0.3031 H   0  0
   -3.2638    0.0603   -0.4588 H   0  0
   -2.4171   -0.6306    1.7086 H   0  0
   -1.2560   -1.7270    0.9749 H   0  0
    0.6725    2.3357   -0.7115 H   0  0
    1.8187    1.2346   -1.4560 H   0  0
   -1.2402   -0.8888   -4.4697 H   0  0
    0.3604   -1.5172   -4.8126 H   0  0
    2.6167    0.4695    0.6998 H   0  0
    2.7619    2.2089    0.5615 H   0  0
    1.1687   -0.7775   -2.6091 H   0  0
    0.5935    0.5664   -3.5705 H   0  0
    1.1382   -1.3617    1.6538 H   0  0
    0.1511   -1.3993    3.1194 H   0  0
   -0.5263   -2.6063   -1.1311 H   0  0
   -2.0930   -3.1546   -1.6937 H   0  0
    1.5250    1.6097    4.1174 H   0  0
   -2.5802   -0.8460   -2.5161 H   0  0
    0.6823   -0.7066   -0.4175 H   0  0
   -1.3432    1.3050    0.6339 H   0  0
    0.2632   -3.2345   -3.1562 H   0  0
   -9.1818  -13.3285   -9.3472 H   0  0
   -3.6804  -11.3309   -6.2812 H   0  0
   -8.4886  -14.8093   -6.7667 H   0  0
   -6.4485  -10.1373   -6.7767 H   0  0
   -6.3583  -14.0667   -8.4130 H   0  0
   -4.9808   -9.0912   -4.6433 H   0  0
   -9.4417  -11.8855   -7.0258 H   0  0
   -3.9095   -9.6949   -8.4743 H   0  0
   -7.5685  -11.2326   -8.3936 H   0  0
   -2.6670   -8.7340   -6.6471 H   0  0
    0.1210    3.1419    2.9721 H   0  0
    0.0630    3.2326    1.2013 H   0  0
    1.5387    3.7047    2.0659 H   0  0
   -2.0673    1.7159   -1.4646 H   0  0
   -1.9340    1.2792   -3.1789 H   0  0
   -0.6220    2.1728   -2.3865 H   0  0
   -2.9440   -6.1600   -7.1706 H   0  0
   -1.5616   -6.9199   -6.3656 H   0  0
   -8.6180  -13.5004   -4.5815 H   0  0
  -10.2815  -13.0188   -5.0047 H   0  0
   -6.7097   -8.5340   -8.7429 H   0  0
   -5.9828   -9.7676   -9.8051 H   0  0
   -7.8742  -15.7501   -8.7153 H   0  0
   -6.0615  -11.1002   -4.7811 H   0  0
  -10.8408  -13.6432   -7.8402 H   0  0
   -7.4205  -12.3929  -10.4313 H   0  0
   -2.3768  -10.1825   -4.8202 H   0  0
   -1.4741    0.1367    3.1568 H   0  0
   -9.2741  -11.5667   -3.5573 H   0  0
   -5.7471   -7.6442  -10.6139 H   0  0
  1  2  2  0
  1 41  1  0
  2 36  1  0
  2 39  1  0
  3  4  2  0
  3  5  1  0
  4  6  1  0
  4 16  1  0
  5 42  2  0
  5 43  1  0
  6 43  1  0
  7 14  1  0
  7 16  1  0
  8  9  1  0
  8 17  1  0
  9 19  1  0
 10 12  1  0
 10 18  1  0
 11 13  1  0
 11 20  1  0
 12 31  1  0
 13 32  1  0
 14 33  1  0
 15 17  1  0
 15 20  1  0
 16 31  1  0
 17 32  1  0
 18 19  1  0
 18 32  1  0
 19 33  1  0
 20 41  1  0
 21 23  1  0
 21 25  1  0
 21 46  1  0
 22 24  1  0
 22 26  1  0
 22 47  1  0
 23 27  1  0
 23 48  1  0
 24 28  1  0
 24 54  1  0
 25 29  1  0
 25 49  1  0
 26 30  1  0
 26 50  1  0
 27 37  1  0
 27 44  1  0
 28 38  1  0
 28 45  1  0
 29 44  1  0
 29 54  1  0
 30 45  1  0
 30 55  1  0
 31 33  1  0
 31 34  1  0
 32 35  1  0
 33 51  1  0
 36 55  1  0
 37 52  1  0
 38 53  1  0
 39 40  2  0
 40 41  1  0
  1 56  1  0
  3 57  1  0
  6 58  1  0
  6 59  1  0
  7 60  1  0
  7 61  1  0
  8 62  1  0
  8 63  1  0
  9 64  1  0
  9 65  1  0
 10 66  1  0
 10 67  1  0
 11 68  1  0
 11 69  1  0
 12 70  1  0
 12 71  1  0
 13 72  1  0
 13 73  1  0
 14 74  1  0
 14 75  1  0
 15 76  1  0
 15 77  1  0
 16 78  1  0
 17 79  1  0
 18 80  1  0
 19 81  1  0
 20 82  1  0
 21 83  1  0
 22 84  1  0
 23 85  1  0
 24 86  1  0
 25 87  1  0
 26 88  1  0
 27 89  1  0
 28 90  1  0
 29 91  1  0
 30 92  1  0
 34 93  1  0
 34 94  1  0
 34 95  1  0
 35 96  1  0
 35 97  1  0
 35 98  1  0
 36 99  1  0
 36100  1  0
 37101  1  0
 37102  1  0
 38103  1  0
 38104  1  0
 46105  1  0
 47106  1  0
 48107  1  0
 49108  1  0
 50109  1  0
 51110  1  0
 52111  1  0
 53112  1  0
M  END
> <Name>
BR010213

$$$$
BR010214
  SciTegic05062102053D

104112  0  0  1  0            999 V2000
   -2.5130   -5.1705    1.3579 C   0  0
   -1.2582   -5.3703    0.7468 C   0  0
   -3.6874   -5.6295    0.7547 C   0  0
   -1.1532   -6.0333   -0.4793 C   0  0
   -2.8674   -3.6556   -4.2146 C   0  0
   -3.5597   -6.2811   -0.4547 C   0  0
   -2.3252   -6.4780   -1.0559 C   0  0
   -3.0858   -4.6015   -5.1845 C   0  0
    4.5442    1.2458    2.8069 C   0  0
   -4.5833   -6.8662   -1.3197 C   0  0
   -2.5418   -7.1920   -2.3140 C   0  0
    3.4312    1.7970    3.2834 C   0  0
    5.6311    2.1814    3.0999 C   0  0
    3.7086    3.1061    3.9088 C   0  0
    2.0183   -0.3054    3.3060 C   0  0
   -2.6461   -0.8450   -0.4059 C   0  0
   -1.7701   -0.7697    0.8341 C   0  0
    1.1615    1.3640   -0.5892 C   0  0
   -0.3481   -1.3208   -3.9982 C   0  0
    2.0311    1.3970    0.6652 C   0  0
    0.2582   -0.3202   -3.0184 C   0  0
    0.7922   -0.7608    2.5009 C   0  0
   -1.3014   -2.4187   -1.8845 C   0  0
    2.0492    1.2284    3.2314 C   0  0  2  0  0  0
   -1.8474   -0.9890   -1.7081 C   0  0  2  0  0  0
    0.1193    0.2302   -0.5302 C   0  0  1  0  0  0
   -0.7555    0.3823    0.7374 C   0  0  2  0  0  0
   -0.6781   -2.6425   -3.2818 C   0  0  1  0  0  0
   -4.5496   -8.0729   -3.5027 C   0  0  2  0  0  0
   -4.0597   -9.5217   -3.5878 C   0  0  2  0  0  0
   -4.5474  -10.2058   -4.8668 C   0  0  1  0  0  0
   -4.2579   -9.3327   -6.0905 C   0  0  1  0  0  0
   -4.2974   -7.3254   -4.8167 C   0  0  1  0  0  0
    1.2101    1.5777    1.9676 C   0  0  2  0  0  0
   -0.7159    0.0843   -1.8620 C   0  0  1  0  0  0
    0.0684    0.5234    2.0466 C   0  0  2  0  0  0
    0.6931    3.0267    2.0588 C   0  0
   -1.3904    1.4235   -2.2554 C   0  0
   -4.3587   -5.1407   -5.6803 C   0  0
   -4.8334   -9.9258   -7.3726 C   0  0
   -1.8885   -5.0262   -5.6900 N   0  0
   -0.9223   -4.3686   -5.0583 N   0  0
   -1.5113   -3.5475   -4.1739 N   0  0
   -3.9040   -7.3904   -2.4004 N   0  0
   -5.7748   -6.8559   -1.0723 O   0  0
   -1.6493   -7.5116   -3.0772 O   0  0
    6.8019    2.0086    2.8081 O   0  0
    5.1217    3.2694    3.7478 O   0  0
   -4.8534   -8.0458   -5.9153 O   0  0
   -4.5631  -10.2397   -2.4595 O   0  0
   -3.8787  -11.4592   -4.9795 O   0  0
   -0.8681    0.8851    3.0762 O   0  0
   -4.5315   -9.0549   -8.4475 O   0  0
   -4.9147   -6.0519   -4.7286 O   0  0
   -2.5651   -4.6517    2.3117 H   0  0
   -0.3611   -5.0024    1.2379 H   0  0
   -4.6517   -5.4754    1.2245 H   0  0
   -0.1887   -6.1865   -0.9486 H   0  0
   -3.5253   -3.0773   -3.5815 H   0  0
    4.6587    0.3022    2.3019 H   0  0
    3.1948    3.9273    3.4009 H   0  0
    3.4679    3.1169    4.9758 H   0  0
    1.9464   -0.6398    4.3477 H   0  0
    2.9245   -0.7590    2.8865 H   0  0
   -3.3495   -1.6804   -0.3031 H   0  0
   -3.2638    0.0603   -0.4588 H   0  0
   -2.4171   -0.6306    1.7086 H   0  0
   -1.2560   -1.7270    0.9749 H   0  0
    0.6725    2.3357   -0.7115 H   0  0
    1.8187    1.2346   -1.4560 H   0  0
   -1.2402   -0.8888   -4.4697 H   0  0
    0.3604   -1.5172   -4.8126 H   0  0
    2.6167    0.4695    0.6998 H   0  0
    2.7619    2.2089    0.5615 H   0  0
    1.1687   -0.7775   -2.6091 H   0  0
    0.5935    0.5664   -3.5705 H   0  0
    1.1382   -1.3617    1.6538 H   0  0
    0.1511   -1.3993    3.1194 H   0  0
   -0.5263   -2.6063   -1.1311 H   0  0
   -2.0930   -3.1546   -1.6937 H   0  0
    1.5250    1.6097    4.1174 H   0  0
   -2.5802   -0.8460   -2.5161 H   0  0
    0.6823   -0.7066   -0.4175 H   0  0
   -1.3432    1.3050    0.6339 H   0  0
    0.2632   -3.2345   -3.1562 H   0  0
   -5.6210   -8.0597   -3.2654 H   0  0
   -2.9643   -9.5631   -3.5285 H   0  0
   -5.6226  -10.4066   -4.7753 H   0  0
   -3.1756   -9.2160   -6.2338 H   0  0
   -3.2237   -7.1685   -4.9824 H   0  0
    0.1210    3.1419    2.9721 H   0  0
    0.0630    3.2326    1.2013 H   0  0
    1.5387    3.7047    2.0659 H   0  0
   -2.0673    1.7159   -1.4646 H   0  0
   -1.9340    1.2792   -3.1789 H   0  0
   -0.6220    2.1728   -2.3865 H   0  0
   -5.1107   -4.3494   -5.8649 H   0  0
   -4.2398   -5.6841   -6.6374 H   0  0
   -5.9152  -10.0262   -7.2834 H   0  0
   -4.3880  -10.9021   -7.5640 H   0  0
   -5.5289  -10.1892   -2.5133 H   0  0
   -2.9297  -11.2635   -5.0197 H   0  0
   -1.4741    0.1367    3.1568 H   0  0
   -4.9071   -9.4527   -9.2513 H   0  0
  1  2  2  0
  1  3  1  0
  2  4  1  0
  3  6  2  0
  4  7  2  0
  5  8  2  0
  5 43  1  0
  6  7  1  0
  6 10  1  0
  7 11  1  0
  8 39  1  0
  8 41  1  0
  9 12  2  0
  9 13  1  0
 10 44  1  0
 10 45  2  0
 11 44  1  0
 11 46  2  0
 12 14  1  0
 12 24  1  0
 13 47  2  0
 13 48  1  0
 14 48  1  0
 15 22  1  0
 15 24  1  0
 16 17  1  0
 16 25  1  0
 17 27  1  0
 18 20  1  0
 18 26  1  0
 19 21  1  0
 19 28  1  0
 20 34  1  0
 21 35  1  0
 22 36  1  0
 23 25  1  0
 23 28  1  0
 24 34  1  0
 25 35  1  0
 26 27  1  0
 26 35  1  0
 27 36  1  0
 28 43  1  0
 29 30  1  0
 29 33  1  0
 29 44  1  0
 30 31  1  0
 30 50  1  0
 31 32  1  0
 31 51  1  0
 32 40  1  0
 32 49  1  0
 33 49  1  0
 33 54  1  0
 34 36  1  0
 34 37  1  0
 35 38  1  0
 36 52  1  0
 39 54  1  0
 40 53  1  0
 41 42  2  0
 42 43  1  0
  1 55  1  0
  2 56  1  0
  3 57  1  0
  4 58  1  0
  5 59  1  0
  9 60  1  0
 14 61  1  0
 14 62  1  0
 15 63  1  0
 15 64  1  0
 16 65  1  0
 16 66  1  0
 17 67  1  0
 17 68  1  0
 18 69  1  0
 18 70  1  0
 19 71  1  0
 19 72  1  0
 20 73  1  0
 20 74  1  0
 21 75  1  0
 21 76  1  0
 22 77  1  0
 22 78  1  0
 23 79  1  0
 23 80  1  0
 24 81  1  0
 25 82  1  0
 26 83  1  0
 27 84  1  0
 28 85  1  0
 29 86  1  0
 30 87  1  0
 31 88  1  0
 32 89  1  0
 33 90  1  0
 37 91  1  0
 37 92  1  0
 37 93  1  0
 38 94  1  0
 38 95  1  0
 38 96  1  0
 39 97  1  0
 39 98  1  0
 40 99  1  0
 40100  1  0
 50101  1  0
 51102  1  0
 52103  1  0
 53104  1  0
M  END
> <Name>
BR010214

$$$$
BR010215
  SciTegic05062102053D

 90 96  0  0  1  0            999 V2000
   -1.1685   -4.7651   -4.6759 C   0  0
   -2.2720   -5.1360   -5.4024 C   0  0
    4.5442    1.2458    2.8069 C   0  0
    3.4312    1.7970    3.2834 C   0  0
    5.6311    2.1814    3.0999 C   0  0
    3.7086    3.1061    3.9088 C   0  0
    2.0183   -0.3054    3.3060 C   0  0
   -2.6461   -0.8450   -0.4059 C   0  0
   -1.7701   -0.7697    0.8341 C   0  0
    1.1615    1.3640   -0.5892 C   0  0
   -0.3481   -1.3208   -3.9982 C   0  0
    2.0311    1.3970    0.6652 C   0  0
    0.2582   -0.3202   -3.0184 C   0  0
    0.7922   -0.7608    2.5009 C   0  0
   -1.3014   -2.4187   -1.8845 C   0  0
    2.0492    1.2284    3.2314 C   0  0  2  0  0  0
   -1.8474   -0.9890   -1.7081 C   0  0  2  0  0  0
    0.1193    0.2302   -0.5302 C   0  0  1  0  0  0
   -0.7555    0.3823    0.7374 C   0  0  2  0  0  0
   -0.6781   -2.6425   -3.2818 C   0  0  1  0  0  0
   -5.1521  -10.4240   -6.3113 C   0  0  2  0  0  0
   -3.9057  -11.3020   -6.1965 C   0  0  1  0  0  0
   -4.9168   -9.0522   -5.6767 C   0  0  1  0  0  0
   -2.6888  -10.5526   -6.7491 C   0  0  2  0  0  0
   -3.6235   -8.4263   -6.2059 C   0  0  2  0  0  0
    1.2101    1.5777    1.9676 C   0  0  2  0  0  0
   -0.7159    0.0843   -1.8620 C   0  0  1  0  0  0
    0.0684    0.5234    2.0466 C   0  0  2  0  0  0
   -1.3910  -11.3382   -6.6051 C   0  0
    0.6931    3.0267    2.0588 C   0  0
   -1.3904    1.4235   -2.2554 C   0  0
   -2.4994   -6.3627   -6.1771 C   0  0
   -3.2255   -4.1595   -5.3205 N   0  0
   -2.7448   -3.1825   -4.5593 N   0  0
   -1.5113   -3.5475   -4.1739 N   0  0
    6.8019    2.0086    2.8081 O   0  0
    5.1217    3.2694    3.7478 O   0  0
   -2.5197   -9.3158   -6.0455 O   0  0
   -6.2504  -11.0763   -5.6801 O   0  0
   -3.6989  -11.6209   -4.8187 O   0  0
   -6.0200   -8.2091   -6.0061 O   0  0
   -0.8681    0.8851    3.0762 O   0  0
   -3.3897   -7.2341   -5.4748 O   0  0
   -0.2163   -5.2378   -4.4804 H   0  0
    4.6587    0.3022    2.3019 H   0  0
    3.1948    3.9273    3.4009 H   0  0
    3.4679    3.1169    4.9758 H   0  0
    1.9464   -0.6398    4.3477 H   0  0
    2.9245   -0.7590    2.8865 H   0  0
   -3.3495   -1.6804   -0.3031 H   0  0
   -3.2638    0.0603   -0.4588 H   0  0
   -2.4171   -0.6306    1.7086 H   0  0
   -1.2560   -1.7270    0.9749 H   0  0
    0.6725    2.3357   -0.7115 H   0  0
    1.8187    1.2346   -1.4560 H   0  0
   -1.2402   -0.8888   -4.4697 H   0  0
    0.3604   -1.5172   -4.8126 H   0  0
    2.6167    0.4695    0.6998 H   0  0
    2.7619    2.2089    0.5615 H   0  0
    1.1687   -0.7775   -2.6091 H   0  0
    0.5935    0.5664   -3.5705 H   0  0
    1.1382   -1.3617    1.6538 H   0  0
    0.1511   -1.3993    3.1194 H   0  0
   -0.5263   -2.6063   -1.1311 H   0  0
   -2.0930   -3.1546   -1.6937 H   0  0
    1.5250    1.6097    4.1174 H   0  0
   -2.5802   -0.8460   -2.5161 H   0  0
    0.6823   -0.7066   -0.4175 H   0  0
   -1.3432    1.3050    0.6339 H   0  0
    0.2632   -3.2345   -3.1562 H   0  0
   -5.4194  -10.3023   -7.3686 H   0  0
   -4.0682  -12.2473   -6.7270 H   0  0
   -4.8945   -9.1374   -4.5835 H   0  0
   -2.8395  -10.3311   -7.8136 H   0  0
   -3.7291   -8.1485   -7.2623 H   0  0
   -1.2128  -11.5741   -5.5560 H   0  0
   -0.5552  -10.7491   -6.9823 H   0  0
   -1.4534  -12.2675   -7.1713 H   0  0
    0.1210    3.1419    2.9721 H   0  0
    0.0630    3.2326    1.2013 H   0  0
    1.5387    3.7047    2.0659 H   0  0
   -2.0673    1.7159   -1.4646 H   0  0
   -1.9340    1.2792   -3.1789 H   0  0
   -0.6220    2.1728   -2.3865 H   0  0
   -2.9440   -6.1600   -7.1706 H   0  0
   -1.5616   -6.9199   -6.3656 H   0  0
   -6.3759  -11.9184   -6.1444 H   0  0
   -2.9053  -12.1751   -4.7837 H   0  0
   -6.0434   -8.1531   -6.9735 H   0  0
   -1.4741    0.1367    3.1568 H   0  0
  1  2  2  0
  1 35  1  0
  2 32  1  0
  2 33  1  0
  3  4  2  0
  3  5  1  0
  4  6  1  0
  4 16  1  0
  5 36  2  0
  5 37  1  0
  6 37  1  0
  7 14  1  0
  7 16  1  0
  8  9  1  0
  8 17  1  0
  9 19  1  0
 10 12  1  0
 10 18  1  0
 11 13  1  0
 11 20  1  0
 12 26  1  0
 13 27  1  0
 14 28  1  0
 15 17  1  0
 15 20  1  0
 16 26  1  0
 17 27  1  0
 18 19  1  0
 18 27  1  0
 19 28  1  0
 20 35  1  0
 21 22  1  0
 21 23  1  0
 21 39  1  0
 22 24  1  0
 22 40  1  0
 23 25  1  0
 23 41  1  0
 24 29  1  0
 24 38  1  0
 25 38  1  0
 25 43  1  0
 26 28  1  0
 26 30  1  0
 27 31  1  0
 28 42  1  0
 32 43  1  0
 33 34  2  0
 34 35  1  0
  1 44  1  0
  3 45  1  0
  6 46  1  0
  6 47  1  0
  7 48  1  0
  7 49  1  0
  8 50  1  0
  8 51  1  0
  9 52  1  0
  9 53  1  0
 10 54  1  0
 10 55  1  0
 11 56  1  0
 11 57  1  0
 12 58  1  0
 12 59  1  0
 13 60  1  0
 13 61  1  0
 14 62  1  0
 14 63  1  0
 15 64  1  0
 15 65  1  0
 16 66  1  0
 17 67  1  0
 18 68  1  0
 19 69  1  0
 20 70  1  0
 21 71  1  0
 22 72  1  0
 23 73  1  0
 24 74  1  0
 25 75  1  0
 29 76  1  0
 29 77  1  0
 29 78  1  0
 30 79  1  0
 30 80  1  0
 30 81  1  0
 31 82  1  0
 31 83  1  0
 31 84  1  0
 32 85  1  0
 32 86  1  0
 39 87  1  0
 40 88  1  0
 41 89  1  0
 42 90  1  0
M  END
> <Name>
BR010215

$$$$
BR010216
  SciTegic05062102053D

 90 96  0  0  1  0            999 V2000
    4.0167   -1.9899    0.1069 C   0  0
    3.3782   -1.4770    1.2080 C   0  0
   11.5363   -2.1383   -8.1508 C   0  0
   12.2072   -1.1188   -7.6213 C   0  0
   11.8262   -2.1275   -9.5856 C   0  0
   12.9673   -0.3854   -8.6538 C   0  0
   12.1082   -1.8896   -5.2103 C   0  0
    8.9168    1.1871   -1.1885 C   0  0
   10.0470    0.4932   -1.9313 C   0  0
    8.5975    0.6118   -5.5449 C   0  0
    5.0537    0.0558   -2.6744 C   0  0
    9.7370   -0.1135   -6.2566 C   0  0
    6.0833    0.2878   -3.7765 C   0  0
   11.3950   -1.3536   -3.9601 C   0  0
    7.0954   -0.5872   -1.2602 C   0  0
   12.2378   -0.7086   -6.1837 C   0  0  2  0  0  0
    7.5242    0.8200   -1.7178 C   0  0  2  0  0  0
    8.6223    0.3583   -4.0249 C   0  0  1  0  0  0
    9.9908    0.7842   -3.4407 C   0  0  2  0  0  0
    5.6186   -0.8925   -1.6016 C   0  0  1  0  0  0
   -1.4552   -3.5250    0.7251 C   0  0  2  0  0  0
   -1.0826   -5.0019    0.8610 C   0  0  2  0  0  0
   -1.1418   -2.7605    2.0123 C   0  0  2  0  0  0
    0.3653   -5.1374    1.3524 C   0  0  2  0  0  0
    0.3014   -3.0007    2.4517 C   0  0  1  0  0  0
   11.1373    0.2955   -5.7325 C   0  0  2  0  0  0
    7.3877    0.9891   -3.2698 C   0  0  1  0  0  0
   11.2038    0.1606   -4.1838 C   0  0  2  0  0  0
    0.7368   -6.5887    1.6437 C   0  0
   11.4815    1.7151   -6.2243 C   0  0
    7.2581    2.5051   -3.5667 C   0  0
    2.4765   -2.1506    2.1513 C   0  0
    3.6996   -0.1558    1.3515 N   0  0
    4.5254    0.1731    0.3641 N   0  0
    4.7141   -0.9280   -0.3811 N   0  0
   11.3815   -2.9221  -10.3959 O   0  0
   12.6689   -1.0904   -9.8635 O   0  0
    0.5681   -4.4028    2.5639 O   0  0
   -2.8444   -3.4172    0.4225 O   0  0
   -1.2298   -5.6160   -0.4169 O   0  0
   -1.9973   -3.2080    3.0651 O   0  0
   12.3733    0.8282   -3.6793 O   0  0
    1.1924   -2.3483    1.5536 O   0  0
    4.0362   -2.9695   -0.3495 H   0  0
   10.8991   -2.8487   -7.6532 H   0  0
   12.6369    0.6524   -8.7554 H   0  0
   14.0466   -0.4192   -8.4787 H   0  0
   13.0966   -2.2887   -4.9538 H   0  0
   11.5303   -2.7178   -5.6383 H   0  0
    8.9861    0.9507   -0.1196 H   0  0
    9.0575    2.2727   -1.2636 H   0  0
   11.0006    0.8399   -1.5153 H   0  0
    9.9977   -0.5851   -1.7433 H   0  0
    8.6641    1.6827   -5.7617 H   0  0
    7.6516    0.2650   -5.9750 H   0  0
    4.7501    1.0162   -2.2381 H   0  0
    4.1444   -0.3833   -3.1036 H   0  0
    9.5789   -1.1935   -6.1424 H   0  0
    9.6604    0.0882   -7.3325 H   0  0
    6.3202   -0.6923   -4.2111 H   0  0
    5.6210    0.8673   -4.5850 H   0  0
   10.4406   -1.8793   -3.8542 H   0  0
   11.9912   -1.5668   -3.0656 H   0  0
    7.7228   -1.3370   -1.7578 H   0  0
    7.2748   -0.7085   -0.1843 H   0  0
   13.2213   -0.2513   -6.0141 H   0  0
    6.8322    1.5193   -1.2255 H   0  0
    8.5425   -0.7289   -3.8878 H   0  0
   10.0806    1.8739   -3.5497 H   0  0
    5.5544   -1.9455   -1.9752 H   0  0
   -0.9114   -3.0866   -0.1199 H   0  0
   -1.7824   -5.4922    1.5495 H   0  0
   -1.3346   -1.6923    1.8627 H   0  0
    1.0614   -4.7685    0.5884 H   0  0
    0.4552   -2.5708    3.4479 H   0  0
    0.0684   -6.9970    2.4003 H   0  0
    1.7617   -6.6422    2.0080 H   0  0
    0.6505   -7.1822    0.7346 H   0  0
   12.4615    1.9908   -5.8526 H   0  0
   10.7375    2.4093   -5.8512 H   0  0
   11.4828    1.7238   -7.3081 H   0  0
    8.1535    3.0033   -3.2215 H   0  0
    6.3921    2.8874   -3.0442 H   0  0
    7.1420    2.6404   -4.6331 H   0  0
    2.8558   -3.1423    2.4653 H   0  0
    2.3293   -1.5672    3.0805 H   0  0
   -3.0369   -2.4701    0.3453 H   0  0
   -0.6272   -5.1508   -1.0176 H   0  0
   -1.7562   -2.6936    3.8498 H   0  0
   12.4213    0.6037   -2.7406 H   0  0
  1  2  2  0
  1 35  1  0
  2 32  1  0
  2 33  1  0
  3  4  2  0
  3  5  1  0
  4  6  1  0
  4 16  1  0
  5 36  2  0
  5 37  1  0
  6 37  1  0
  7 14  1  0
  7 16  1  0
  8  9  1  0
  8 17  1  0
  9 19  1  0
 10 12  1  0
 10 18  1  0
 11 13  1  0
 11 20  1  0
 12 26  1  0
 13 27  1  0
 14 28  1  0
 15 17  1  0
 15 20  1  0
 16 26  1  0
 17 27  1  0
 18 19  1  0
 18 27  1  0
 19 28  1  0
 20 35  1  0
 21 22  1  0
 21 23  1  0
 21 39  1  0
 22 24  1  0
 22 40  1  0
 23 25  1  0
 23 41  1  0
 24 29  1  0
 24 38  1  0
 25 38  1  0
 25 43  1  0
 26 28  1  0
 26 30  1  0
 27 31  1  0
 28 42  1  0
 32 43  1  0
 33 34  2  0
 34 35  1  0
  1 44  1  0
  3 45  1  0
  6 46  1  0
  6 47  1  0
  7 48  1  0
  7 49  1  0
  8 50  1  0
  8 51  1  0
  9 52  1  0
  9 53  1  0
 10 54  1  0
 10 55  1  0
 11 56  1  0
 11 57  1  0
 12 58  1  0
 12 59  1  0
 13 60  1  0
 13 61  1  0
 14 62  1  0
 14 63  1  0
 15 64  1  0
 15 65  1  0
 16 66  1  0
 17 67  1  0
 18 68  1  0
 19 69  1  0
 20 70  1  0
 21 71  1  0
 22 72  1  0
 23 73  1  0
 24 74  1  0
 25 75  1  0
 29 76  1  0
 29 77  1  0
 29 78  1  0
 30 79  1  0
 30 80  1  0
 30 81  1  0
 31 82  1  0
 31 83  1  0
 31 84  1  0
 32 85  1  0
 32 86  1  0
 39 87  1  0
 40 88  1  0
 41 89  1  0
 42 90  1  0
M  END
> <Name>
BR010216

$$$$
BR010217
  SciTegic05062102053D

 24 25  0  0  0  0            999 V2000
    2.4065   -6.2973   -0.1901 C   0  0
    2.0210   -5.2017    0.1131 C   0  0
   -0.3721    3.0003    0.3098 C   0  0
    0.8325    2.8475   -0.3745 C   0  0
   -1.1094    1.8780    0.6883 C   0  0
    1.3054    1.5717   -0.6836 C   0  0
   -0.6381    0.5968    0.3799 C   0  0
    0.5689    0.4430   -0.3059 C   0  0
   -0.8880   -1.9161    0.4360 C   0  0
   -1.4241   -0.5841    0.7838 C   0  0
    1.0779   -0.9027   -0.6376 C   0  0
    0.2647   -2.0708   -0.2192 C   0  0
    1.5525   -3.8662    0.4849 C   0  0
   -2.4851   -0.4771    1.3866 O   0  0
    2.1354   -1.0534   -1.2379 O   0  0
    0.7319   -3.3328   -0.5257 O   0  0
    2.7486   -7.2694   -0.4591 H   0  0
   -0.7375    3.9949    0.5488 H   0  0
    1.4042    3.7232   -0.6678 H   0  0
   -2.0455    2.0222    1.2209 H   0  0
    2.2472    1.4788   -1.2177 H   0  0
   -1.4768   -2.7761    0.7387 H   0  0
    2.3904   -3.1815    0.6489 H   0  0
    0.9653   -3.9069    1.4071 H   0  0
  1  2  3  0
  2 13  1  0
  3  4  1  0
  3  5  2  0
  4  6  2  0
  5  7  1  0
  6  8  1  0
  7  8  2  0
  7 10  1  0
  8 11  1  0
  9 10  1  0
  9 12  2  0
 10 14  2  0
 11 12  1  0
 11 15  2  0
 12 16  1  0
 13 16  1  0
  1 17  1  0
  3 18  1  0
  4 19  1  0
  5 20  1  0
  6 21  1  0
  9 22  1  0
 13 23  1  0
 13 24  1  0
M  END
> <Name>
BR010217

$$$$
BR010218
  SciTegic05062102053D

 60 62  0  0  1  0            999 V2000
    1.9377    8.3657    5.6651 C   0  0
    2.4382    7.3566    6.4858 C   0  0
    1.6143    8.0911    4.3360 C   0  0
    2.6177    6.0680    5.9814 C   0  0
    1.7931    6.7998    3.8267 C   0  0
    2.2947    5.7882    4.6486 C   0  0
    1.6549    5.1416    1.9263 C   0  0
    1.4486    6.5185    2.4203 C   0  0
    2.4882    4.4215    4.1244 C   0  0
    2.1339    4.1696    2.7060 C   0  0
    3.2813   -1.7566    1.1216 C   0  0
    1.1859   -0.8447   -1.9447 C   0  0
    2.2749   -0.0105    4.4684 C   0  0
   -1.9234    4.4500   -1.3161 C   0  0
    1.9514    0.1836    0.8896 C   0  0  1  0  0  0
    0.8918    0.6285   -0.1205 C   0  0  1  0  0  0
    1.5562    0.6052    2.3034 C   0  0  2  0  0  0
    0.5380    2.1106    0.0630 C   0  0  1  0  0  0
    1.1766    2.0855    2.3663 C   0  0  2  0  0  0
    3.2349   -3.2517    1.0291 C   0  0
    1.7788   -0.9381   -3.3179 C   0  0
    3.5026   -0.2672    5.2886 C   0  0
   -2.0930    5.8968   -0.9637 C   0  0
   -0.6270    2.5360   -0.8266 C   0  0
    1.0065    7.3872    1.6786 O   0  0
    2.9263    3.5235    4.8337 O   0  0
    4.2846   -1.1188    1.4108 O   0  0
    0.5959   -1.7616   -1.3894 O   0  0
    1.1327   -0.1020    4.8976 O   0  0
   -2.6134    3.8590   -2.1357 O   0  0
    0.1510    2.3791    1.4155 O   0  0
    2.3050    2.9468    2.2268 O   0  0
    2.0502   -1.2415    0.8372 O   0  0
    1.4072    0.4010   -1.4301 O   0  0
    2.6319    0.3331    3.1946 O   0  0
   -0.8964    3.9056   -0.5907 O   0  0
    1.7992    9.3677    6.0608 H   0  0
    2.6890    7.5735    7.5202 H   0  0
    1.2257    8.8941    3.7155 H   0  0
    3.0094    5.2986    6.6413 H   0  0
    1.3980    4.9488    0.8896 H   0  0
    2.9381    0.5738    0.6187 H   0  0
    0.0000    0.0003    0.0011 H   0  0
    0.7036   -0.0060    2.6232 H   0  0
    1.3968    2.7418   -0.2005 H   0  0
    0.7465    2.2944    3.3737 H   0  0
    2.9707   -3.6754    2.0012 H   0  0
    4.2024   -3.6328    0.6926 H   0  0
    2.4731   -3.5466    0.3016 H   0  0
    1.0386   -0.6358   -4.0628 H   0  0
    2.1203   -1.9591   -3.5059 H   0  0
    2.6387   -0.2655   -3.3881 H   0  0
    3.7827   -1.3211    5.2173 H   0  0
    3.3192    0.0134    6.3288 H   0  0
    4.3282    0.3396    4.9053 H   0  0
   -2.7964    5.9963   -0.1333 H   0  0
   -2.4457    6.4522   -1.8364 H   0  0
   -1.1285    6.3103   -0.6551 H   0  0
   -1.5120    1.9475   -0.5858 H   0  0
   -0.3647    2.3950   -1.8748 H   0  0
  1  2  1  0
  1  3  2  0
  2  4  2  0
  3  5  1  0
  4  6  1  0
  5  6  2  0
  5  8  1  0
  6  9  1  0
  7  8  1  0
  7 10  2  0
  8 25  2  0
  9 10  1  0
  9 26  2  0
 10 32  1  0
 11 20  1  0
 11 27  2  0
 11 33  1  0
 12 21  1  0
 12 28  2  0
 12 34  1  0
 13 22  1  0
 13 29  2  0
 13 35  1  0
 14 23  1  0
 14 30  2  0
 14 36  1  0
 15 16  1  0
 15 17  1  0
 15 33  1  0
 16 18  1  0
 16 34  1  0
 17 19  1  0
 17 35  1  0
 18 24  1  0
 18 31  1  0
 19 31  1  0
 19 32  1  0
 24 36  1  0
  1 37  1  0
  2 38  1  0
  3 39  1  0
  4 40  1  0
  7 41  1  0
 15 42  1  0
 16 43  1  0
 17 44  1  0
 18 45  1  0
 19 46  1  0
 20 47  1  0
 20 48  1  0
 20 49  1  0
 21 50  1  0
 21 51  1  0
 21 52  1  0
 22 53  1  0
 22 54  1  0
 22 55  1  0
 23 56  1  0
 23 57  1  0
 23 58  1  0
 24 59  1  0
 24 60  1  0
M  END
> <Name>
BR010218

$$$$
BR010219
  SciTegic05062102053D

 60 62  0  0  1  0            999 V2000
    7.9943   -4.1002   -5.3306 C   0  0
    7.6428   -3.1000   -6.2354 C   0  0
    7.3185   -4.2137   -4.1153 C   0  0
    6.6141   -2.2085   -5.9292 C   0  0
    6.2861   -3.3212   -3.8049 C   0  0
    5.9336   -2.3186   -4.7111 C   0  0
    4.4954   -2.4837   -2.2326 C   0  0
    5.5772   -3.4485   -2.5177 C   0  0
    4.8465   -1.3704   -4.3964 C   0  0
    4.1529   -1.5229   -3.0939 C   0  0
   -0.2251    2.7476   -1.1613 C   0  0
   -2.1694   -0.6715   -0.5769 C   0  0
    1.2807    0.9949   -5.5006 C   0  0
    1.3596   -4.7072    0.8993 C   0  0
    0.6525    0.7003   -1.9500 C   0  0  1  0  0  0
    0.1365   -0.3953   -1.0129 C   0  0  2  0  0  0
    0.9465    0.1176   -3.3324 C   0  0  2  0  0  0
    1.1030   -1.5869   -1.0054 C   0  0  1  0  0  0
    1.8778   -1.0922   -3.2213 C   0  0  2  0  0  0
   -1.3043    3.7571   -1.4114 C   0  0
   -3.4434   -1.1820   -1.1788 C   0  0
    1.9784    2.0902   -6.2487 C   0  0
    2.6009   -5.5009    1.1741 C   0  0
    0.5767   -2.7567   -0.1807 C   0  0
    5.8661   -4.3189   -1.7058 O   0  0
    4.5253   -0.4864   -5.1818 O   0  0
    0.6053    2.8396   -0.2675 O   0  0
   -2.0883   -0.1798    0.5406 O   0  0
    0.5786    0.1436   -6.0292 O   0  0
    0.2445   -5.0208    1.2935 O   0  0
    1.3223   -2.0715   -2.3394 O   0  0
    3.1769   -0.6761   -2.8026 O   0  0
   -0.3196    1.7348   -2.0732 O   0  0
   -1.1452   -0.8427   -1.4614 O   0  0
    1.5508    1.1015   -4.1653 O   0  0
    1.6647   -3.5997    0.1529 O   0  0
    8.7956   -4.7926   -5.5721 H   0  0
    8.1708   -3.0143   -7.1808 H   0  0
    7.6103   -5.0015   -3.4261 H   0  0
    6.3588   -1.4374   -6.6511 H   0  0
    3.9827   -2.5884   -1.2818 H   0  0
    1.5568    1.1591   -1.5359 H   0  0
    0.0017    0.0075   -0.0025 H   0  0
    0.0041   -0.1802   -3.8098 H   0  0
    2.0622   -1.2779   -0.5792 H   0  0
    1.9892   -1.5506   -4.2100 H   0  0
   -0.9454    4.5190   -2.1076 H   0  0
   -1.6124    4.2124   -0.4667 H   0  0
   -2.1708    3.2589   -1.8560 H   0  0
   -3.9445   -0.3780   -1.7235 H   0  0
   -4.0921   -1.5781   -0.3934 H   0  0
   -3.2149   -1.9891   -1.8808 H   0  0
    1.3285    2.9661   -6.3154 H   0  0
    2.2564    1.7396   -7.2459 H   0  0
    2.8895    2.3720   -5.7129 H   0  0
    2.7547   -6.2356    0.3799 H   0  0
    2.5179   -5.9948    2.1455 H   0  0
    3.4633   -4.8283    1.1986 H   0  0
   -0.1528   -3.3232   -0.7601 H   0  0
    0.1126   -2.3890    0.7349 H   0  0
  1  2  1  0
  1  3  2  0
  2  4  2  0
  3  5  1  0
  4  6  1  0
  5  6  2  0
  5  8  1  0
  6  9  1  0
  7  8  1  0
  7 10  2  0
  8 25  2  0
  9 10  1  0
  9 26  2  0
 10 32  1  0
 11 20  1  0
 11 27  2  0
 11 33  1  0
 12 21  1  0
 12 28  2  0
 12 34  1  0
 13 22  1  0
 13 29  2  0
 13 35  1  0
 14 23  1  0
 14 30  2  0
 14 36  1  0
 15 16  1  0
 15 17  1  0
 15 33  1  0
 16 18  1  0
 16 34  1  0
 17 19  1  0
 17 35  1  0
 18 24  1  0
 18 31  1  0
 19 31  1  0
 19 32  1  0
 24 36  1  0
  1 37  1  0
  2 38  1  0
  3 39  1  0
  4 40  1  0
  7 41  1  0
 15 42  1  0
 16 43  1  0
 17 44  1  0
 18 45  1  0
 19 46  1  0
 20 47  1  0
 20 48  1  0
 20 49  1  0
 21 50  1  0
 21 51  1  0
 21 52  1  0
 22 53  1  0
 22 54  1  0
 22 55  1  0
 23 56  1  0
 23 57  1  0
 23 58  1  0
 24 59  1  0
 24 60  1  0
M  END
> <Name>
BR010219

$$$$
BR010220
  SciTegic05062102053D

 61 63  0  0  1  0            999 V2000
    3.0096    5.8436    6.4203 C   0  0
    3.2121    6.4097    5.1628 C   0  0
    2.5097    4.5458    6.5314 C   0  0
    2.9155    5.6808    4.0106 C   0  0
    2.2110    3.8118    5.3778 C   0  0
    2.4136    4.3786    4.1175 C   0  0
    1.3809    1.7044    4.2599 C   0  0
    1.6828    2.4406    5.5046 C   0  0
    2.1028    3.6156    2.8922 C   0  0
    1.5720    2.2395    3.0520 C   0  0
    3.0137    2.3298   -1.3826 C   0  0
   -0.3355   -1.2545   -2.0379 C   0  0
   -0.0112   -3.7440    0.1738 C   0  0
    2.3720   -2.9959    5.2717 C   0  0
    2.1367    0.4363   -0.0306 C   0  0  2  0  0  0
    0.9487   -0.5147   -0.1974 C   0  0  2  0  0  0
    1.1071   -1.7342    0.7162 C   0  0  1  0  0  0
    1.4253   -1.3138    2.1559 C   0  0  1  0  0  0
    2.3684    0.7673    1.4470 C   0  0  2  0  0  0
    2.6006    3.5417   -2.1500 C   0  0
   -0.2265   -1.7053   -3.4630 C   0  0
   -1.3582   -4.4006    0.1913 C   0  0
    2.6538   -2.3546    6.5966 C   0  0
    1.7588   -2.5112    3.0417 C   0  0
    1.9613    1.6381   -0.8134 N   0  0
    1.4966    1.9198    6.5976 O   0  0
    2.2762    4.0991    1.7798 O   0  0
    4.2013    2.0367   -1.3095 O   0  0
   -1.3908   -1.1711   -1.4244 O   0  0
    1.0089   -4.2836   -0.2330 O   0  0
    2.4278   -4.2011    5.0681 O   0  0
    2.5571   -0.4377    2.1928 O   0  0
    1.2894    1.5477    1.9581 O   0  0
    0.9060   -0.9606   -1.5544 O   0  0
   -0.1089   -2.4769    0.6745 O   0  0
    2.0496   -2.0399    4.3446 O   0  0
    3.2415    6.4137    7.3153 H   0  0
    3.6016    7.4203    5.0796 H   0  0
    2.3603    4.1258    7.5224 H   0  0
    3.0820    6.1443    3.0419 H   0  0
    0.9922    0.6968    4.3680 H   0  0
    3.0326   -0.0532   -0.4338 H   0  0
    0.0000    0.0000    0.0000 H   0  0
    1.9025   -2.3757    0.3152 H   0  0
    0.5604   -0.8079    2.6039 H   0  0
    3.2827    1.3640    1.5456 H   0  0
    2.5701    4.4468   -1.5223 H   0  0
    3.2984    3.7788   -2.9690 H   0  0
    1.6074    3.4839   -2.6234 H   0  0
   -0.3063   -0.8445   -4.1314 H   0  0
   -1.0086   -2.4368   -3.6815 H   0  0
    0.7467   -2.1795   -3.6200 H   0  0
   -1.5045   -4.9217    1.1407 H   0  0
   -1.4427   -5.0963   -0.6473 H   0  0
   -2.1351   -3.6373    0.0893 H   0  0
    3.7156   -2.1071    6.6705 H   0  0
    2.3577   -3.0279    7.4050 H   0  0
    2.0737   -1.4312    6.6832 H   0  0
    2.6280   -3.0356    2.6454 H   0  0
    0.9072   -3.1898    3.0851 H   0  0
    1.0192    1.9915   -0.9520 H   0  0
  1  2  1  0
  1  3  2  0
  2  4  2  0
  3  5  1  0
  4  6  1  0
  5  6  2  0
  5  8  1  0
  6  9  1  0
  7  8  1  0
  7 10  2  0
  8 26  2  0
  9 10  1  0
  9 27  2  0
 10 33  1  0
 11 20  1  0
 11 25  1  0
 11 28  2  0
 12 21  1  0
 12 29  2  0
 12 34  1  0
 13 22  1  0
 13 30  2  0
 13 35  1  0
 14 23  1  0
 14 31  2  0
 14 36  1  0
 15 16  1  0
 15 19  1  0
 15 25  1  0
 16 17  1  0
 16 34  1  0
 17 18  1  0
 17 35  1  0
 18 24  1  0
 18 32  1  0
 19 32  1  0
 19 33  1  0
 24 36  1  0
  1 37  1  0
  2 38  1  0
  3 39  1  0
  4 40  1  0
  7 41  1  0
 15 42  1  0
 16 43  1  0
 17 44  1  0
 18 45  1  0
 19 46  1  0
 20 47  1  0
 20 48  1  0
 20 49  1  0
 21 50  1  0
 21 51  1  0
 21 52  1  0
 22 53  1  0
 22 54  1  0
 22 55  1  0
 23 56  1  0
 23 57  1  0
 23 58  1  0
 24 59  1  0
 24 60  1  0
 25 61  1  0
M  END
> <Name>
BR010220

$$$$
BR010221
  SciTegic05062102053D

 54 56  0  0  1  0            999 V2000
    2.8135    4.9515    8.7422 C   0  0
    2.8681    6.0377    7.8706 C   0  0
    2.5046    3.6802    8.2577 C   0  0
    2.6138    5.8579    6.5105 C   0  0
    2.2489    3.4960    6.8941 C   0  0
    2.3033    4.5842    6.0202 C   0  0
    1.6596    2.0022    4.9445 C   0  0
    1.9229    2.1485    6.3907 C   0  0
    2.0359    4.4042    4.5794 C   0  0
    1.7097    3.0376    4.1032 C   0  0
    0.9993    1.7944   -2.1629 C   0  0
   -2.2191    0.0796   -0.7042 C   0  0
    0.2643    5.6735    0.7099 C   0  0
    0.4032    2.1243    0.0997 C   0  0  2  0  0  0
   -0.3745    0.8785    0.5369 C   0  0  1  0  0  0
   -0.0010    3.3360    0.9392 C   0  0  1  0  0  0
   -0.2549    0.6764    2.0537 C   0  0  2  0  0  0
    0.0998    3.0178    2.4343 C   0  0  1  0  0  0
    0.6193    2.1713   -3.5628 C   0  0
   -3.6650    0.3458   -0.9952 C   0  0
    1.2616    6.7296    0.3411 C   0  0
   -1.1155   -0.4775    2.5561 C   0  0
    1.8694    1.1774    7.1354 O   0  0
    2.0809    5.3490    3.8005 O   0  0
    1.9316    1.0535   -1.8819 O   0  0
   -1.5811   -0.8441   -1.1908 O   0  0
   -0.8892    5.9074    1.0444 O   0  0
   -0.6737    1.8580    2.7540 O   0  0
    1.4674    2.8667    2.8123 O   0  0
    0.1540    2.3989   -1.2763 O   0  0
   -1.7496    1.0149    0.1703 O   0  0
    0.8408    4.4381    0.6140 O   0  0
    3.0120    5.0949    9.8005 H   0  0
    3.1090    7.0263    8.2509 H   0  0
    2.4680    2.8487    8.9564 H   0  0
    2.6625    6.7204    5.8514 H   0  0
    1.4203    1.0054    4.5878 H   0  0
    1.4799    1.9466    0.1983 H   0  0
    0.0119   -0.0045   -0.0047 H   0  0
   -1.0277    3.6219    0.6846 H   0  0
    0.7857    0.4601    2.3135 H   0  0
   -0.3007    3.8618    3.0061 H   0  0
   -0.1048    1.4538   -3.9565 H   0  0
    1.5114    2.2041   -4.1932 H   0  0
    0.1597    3.1640   -3.5590 H   0  0
   -4.2923   -0.1899   -0.2785 H   0  0
   -3.9001    0.0396   -2.0177 H   0  0
   -3.8629    1.4174   -0.8990 H   0  0
    1.8058    7.0531    1.2319 H   0  0
    0.7509    7.5750   -0.1268 H   0  0
    1.9786    6.3171   -0.3748 H   0  0
   -2.1619   -0.2943    2.3133 H   0  0
   -1.0141   -0.5740    3.6368 H   0  0
   -0.8003   -1.4087    2.0859 H   0  0
  1  2  1  0
  1  3  2  0
  2  4  2  0
  3  5  1  0
  4  6  1  0
  5  6  2  0
  5  8  1  0
  6  9  1  0
  7  8  1  0
  7 10  2  0
  8 23  2  0
  9 10  1  0
  9 24  2  0
 10 29  1  0
 11 19  1  0
 11 25  2  0
 11 30  1  0
 12 20  1  0
 12 26  2  0
 12 31  1  0
 13 21  1  0
 13 27  2  0
 13 32  1  0
 14 15  1  0
 14 16  1  0
 14 30  1  0
 15 17  1  0
 15 31  1  0
 16 18  1  0
 16 32  1  0
 17 22  1  0
 17 28  1  0
 18 28  1  0
 18 29  1  0
  1 33  1  0
  2 34  1  0
  3 35  1  0
  4 36  1  0
  7 37  1  0
 14 38  1  0
 15 39  1  0
 16 40  1  0
 17 41  1  0
 18 42  1  0
 19 43  1  0
 19 44  1  0
 19 45  1  0
 20 46  1  0
 20 47  1  0
 20 48  1  0
 21 49  1  0
 21 50  1  0
 21 51  1  0
 22 52  1  0
 22 53  1  0
 22 54  1  0
M  END
> <Name>
BR010221

$$$$
BR010222
  SciTegic05062102053D

 62 64  0  0  1  0            999 V2000
    3.0259    2.0499    7.6771 C   0  0
    3.9392    2.4840    6.7178 C   0  0
    1.7273    1.7036    7.3021 C   0  0
    3.5587    2.5741    5.3785 C   0  0
    1.3406    1.7923    5.9599 C   0  0
    2.2573    2.2280    4.9975 C   0  0
   -0.4099    1.5296    4.1503 C   0  0
   -0.0383    1.4225    5.5772 C   0  0
    1.8649    2.3276    3.5760 C   0  0
    0.4765    1.9457    3.2457 C   0  0
    1.6243    2.6159   -1.7176 C   0  0
    1.6036   -0.3522   -3.2528 C   0  0
   -2.9886   -0.4497    1.9455 C   0  0
    1.3667   -4.3567   -1.4313 C   0  0
    0.3983    0.7787    1.1595 C   0  0  2  0  0  0
    0.5075    1.0524   -0.3404 C   0  0  2  0  0  0
    0.6299   -0.2726   -1.1012 C   0  0  1  0  0  0
   -0.4550   -1.2677   -0.6747 C   0  0  1  0  0  0
   -0.6802   -0.2584    1.4806 C   0  0  2  0  0  0
    2.9202    3.3514   -1.8781 C   0  0
    1.3375   -0.0385   -4.6939 C   0  0
   -4.3198    0.1714    1.6482 C   0  0
    2.7264   -4.7492   -0.9381 C   0  0
   -0.2472   -2.6341   -1.3222 C   0  0
    0.0984    2.0426    1.8846 N   0  3
   -0.8553    1.0384    6.4052 O   0  0
    2.6550    2.7079    2.7212 O   0  0
    0.6712    2.7337   -2.4758 O   0  0
    2.6503   -0.8311   -2.8378 O   0  0
   -2.8327   -1.4196    2.6750 O   0  0
    0.6808   -5.0478   -2.1724 O   0  0
   -0.4423   -1.4619    0.7429 O   0  0
    1.6838    1.8151   -0.6137 O   0  0
    0.5123   -0.0238   -2.5002 O   0  0
   -2.0056    0.2296    1.2847 O   0  0
    1.0208   -3.1283   -0.9325 O   0  0
    3.3256    1.9807    8.7188 H   0  0
    4.9495    2.7522    7.0133 H   0  0
    1.0338    1.3687    8.0687 H   0  0
    4.2890    2.9153    4.6497 H   0  0
   -1.4246    1.2565    3.8799 H   0  0
    1.3702    0.4379    1.5409 H   0  0
   -0.3472    1.6253   -0.7128 H   0  0
    1.6270   -0.6976   -0.9223 H   0  0
   -1.4426   -0.9067   -0.9861 H   0  0
   -0.5943   -0.5368    2.5573 H   0  0
    2.8764    4.3017   -1.3404 H   0  0
    3.1233    3.5178   -2.9391 H   0  0
    3.7325    2.7506   -1.4588 H   0  0
    0.8928   -0.9067   -5.1865 H   0  0
    2.2682    0.2507   -5.1886 H   0  0
    0.6349    0.7973   -4.7593 H   0  0
   -4.5378    0.9506    2.3826 H   0  0
   -5.0977   -0.5962    1.6580 H   0  0
   -4.2934    0.6268    0.6540 H   0  0
    3.4902   -4.3934   -1.6339 H   0  0
    2.7816   -5.8350   -0.8273 H   0  0
    2.9040   -4.2905    0.0389 H   0  0
   -0.2798   -2.5394   -2.4072 H   0  0
   -1.0217   -3.3245   -0.9890 H   0  0
   -0.9055    2.2553    1.8062 H   0  0
    0.5901    2.8250    1.4314 H   0  0
  1  2  1  0
  1  3  2  0
  2  4  2  0
  3  5  1  0
  4  6  1  0
  5  6  2  0
  5  8  1  0
  6  9  1  0
  7  8  1  0
  7 10  2  0
  8 26  2  0
  9 10  1  0
  9 27  2  0
 10 25  1  0
 11 20  1  0
 11 28  2  0
 11 33  1  0
 12 21  1  0
 12 29  2  0
 12 34  1  0
 13 22  1  0
 13 30  2  0
 13 35  1  0
 14 23  1  0
 14 31  2  0
 14 36  1  0
 15 16  1  0
 15 19  1  0
 15 25  1  0
 16 17  1  0
 16 33  1  0
 17 18  1  0
 17 34  1  0
 18 24  1  0
 18 32  1  0
 19 32  1  0
 19 35  1  0
 24 36  1  0
  1 37  1  0
  2 38  1  0
  3 39  1  0
  4 40  1  0
  7 41  1  0
 15 42  1  0
 16 43  1  0
 17 44  1  0
 18 45  1  0
 19 46  1  0
 20 47  1  0
 20 48  1  0
 20 49  1  0
 21 50  1  0
 21 51  1  0
 21 52  1  0
 22 53  1  0
 22 54  1  0
 22 55  1  0
 23 56  1  0
 23 57  1  0
 23 58  1  0
 24 59  1  0
 24 60  1  0
 25 61  1  0
 25 62  1  0
M  CHG  1  25   1
M  END
> <Name>
BR010222

$$$$
BR010223
  SciTegic05062102053D

 22 23  0  0  0  0            999 V2000
   -0.3721    3.0003    0.3098 C   0  0
    0.8325    2.8475   -0.3745 C   0  0
   -1.1094    1.8780    0.6883 C   0  0
    1.3054    1.5717   -0.6836 C   0  0
   -0.6381    0.5968    0.3799 C   0  0
    0.5689    0.4430   -0.3059 C   0  0
   -0.8880   -1.9161    0.4360 C   0  0
   -1.4241   -0.5841    0.7838 C   0  0
    1.0779   -0.9027   -0.6376 C   0  0
    0.2647   -2.0708   -0.2192 C   0  0
    0.2775   -3.7890   -1.7766 C   0  0
   -2.4851   -0.4771    1.3866 O   0  0
    2.1354   -1.0534   -1.2379 O   0  0
    0.7319   -3.3328   -0.5257 O   0  0
   -0.7375    3.9949    0.5488 H   0  0
    1.4042    3.7232   -0.6678 H   0  0
   -2.0455    2.0222    1.2209 H   0  0
    2.2472    1.4788   -1.2177 H   0  0
   -1.4768   -2.7761    0.7387 H   0  0
    0.6758   -4.7885   -1.9674 H   0  0
    0.6055   -3.0990   -2.5581 H   0  0
   -0.8142   -3.8305   -1.7646 H   0  0
  1  2  1  0
  1  3  2  0
  2  4  2  0
  3  5  1  0
  4  6  1  0
  5  6  2  0
  5  8  1  0
  6  9  1  0
  7  8  1  0
  7 10  2  0
  8 12  2  0
  9 10  1  0
  9 13  2  0
 10 14  1  0
 11 14  1  0
  1 15  1  0
  2 16  1  0
  3 17  1  0
  4 18  1  0
  7 19  1  0
 11 20  1  0
 11 21  1  0
 11 22  1  0
M  END
> <Name>
BR010223

$$$$
BR010224
  SciTegic05062102053D

 23 24  0  0  0  0            999 V2000
    2.4219   -7.8171   -3.4426 C   0  0
    1.2969   -7.4616   -3.2196 C   0  0
    0.0638   -0.8847   -1.9605 C   0  0
   -0.0013   -0.9241   -0.5706 C   0  0
    0.0622   -2.0725   -2.6910 C   0  0
   -0.0680   -2.1514    0.0899 C   0  0
   -0.0047   -3.3049   -2.0272 C   0  0
   -0.0698   -3.3480   -0.6412 C   0  0
   -0.0054   -4.5491   -2.8020 C   0  0
   -0.1402   -4.6367    0.0708 C   0  0
   -0.0816   -5.8433   -2.0620 C   0  0
   -0.1468   -5.9340   -0.7130 C   0  0
   -0.0792   -7.0544   -2.9681 C   0  0
   -0.2141   -6.9609    0.0225 O   0  5
    0.0544   -4.5137   -4.0266 O   0  0
   -0.1931   -4.6254    1.2999 O   0  0
    3.4197   -8.1325   -3.6405 H   0  0
    0.1148    0.0701   -2.4755 H   0  0
   -0.0014    0.0002   -0.0003 H   0  0
    0.1133   -2.0168   -3.7751 H   0  0
   -0.1202   -2.1523    1.1756 H   0  0
   -0.6447   -7.8438   -2.4795 H   0  0
   -0.5910   -6.7882   -3.8895 H   0  0
  1  2  3  0
  2 13  1  0
  3  4  1  0
  3  5  2  0
  4  6  2  0
  5  7  1  0
  6  8  1  0
  7  8  2  0
  7  9  1  0
  8 10  1  0
  9 11  1  0
  9 15  2  0
 10 12  1  0
 10 16  2  0
 11 12  2  0
 11 13  1  0
 12 14  1  0
  1 17  1  0
  3 18  1  0
  4 19  1  0
  5 20  1  0
  6 21  1  0
 13 22  1  0
 13 23  1  0
M  CHG  1  14  -1
M  END
> <Name>
BR010224

$$$$
BR010225
  SciTegic05062102053D

 24 26  0  0  0  0            999 V2000
    1.9774   -0.8364   -0.1566 C   0  0
    0.7129   -0.5065   -0.6445 C   0  0
    2.9012   -1.4875   -0.9756 C   0  0
    0.3596   -0.8239   -1.9563 C   0  0
    3.7963   -3.4441   -5.5815 C   0  0
    2.5602   -1.8119   -2.2931 C   0  0
    1.2776   -1.4758   -2.7863 C   0  0
    3.1538   -2.8120   -4.4932 C   0  0
    1.9003   -2.4708   -4.9393 C   0  0
    2.8818   -3.4405   -6.6137 C   0  0
    3.5746   -2.5108   -3.1464 C   0  0
    0.8797   -1.8062   -4.1901 C   0  0
    2.9288   -3.9383   -7.9960 C   0  0
    4.6837   -2.8022   -2.7197 O   0  0
   -0.2274   -1.5187   -4.6248 O   0  0
    1.7174   -2.8463   -6.2291 O   0  0
    2.2442   -0.5855    0.8661 H   0  0
    0.0003    0.0000    0.0000 H   0  0
    3.8783   -1.7322   -0.5682 H   0  0
   -0.6318   -0.5552   -2.3111 H   0  0
    4.7969   -3.8516   -5.6149 H   0  0
    2.5821   -4.9850   -8.0599 H   0  0
    2.2987   -3.3397   -8.6796 H   0  0
    3.9492   -3.9021   -8.4208 H   0  0
  1  2  2  0
  1  3  1  0
  2  4  1  0
  3  6  2  0
  4  7  2  0
  5  8  1  0
  5 10  2  0
  6  7  1  0
  6 11  1  0
  7 12  1  0
  8  9  2  0
  8 11  1  0
  9 12  1  0
  9 16  1  0
 10 13  1  0
 10 16  1  0
 11 14  2  0
 12 15  2  0
  1 17  1  0
  2 18  1  0
  3 19  1  0
  4 20  1  0
  5 21  1  0
 13 22  1  0
 13 23  1  0
 13 24  1  0
M  END
> <Name>
BR010225

$$$$
BR010226
  SciTegic05062102053D

 59 63  0  0  1  0            999 V2000
    1.2962    6.1045   -0.7872 C   0  0
    0.5011    5.1404   -0.3310 C   0  0
    1.0713    7.2702    0.0692 C   0  0
    0.9968    1.4851   -0.8746 C   0  0
   -0.2832    5.6006    0.8329 C   0  0
    1.2149    1.9764   -2.2693 C   0  0
    1.2333    3.4950   -2.1090 C   0  0
    1.1260   -0.9453   -1.5653 C   0  0
    1.1306   -2.3901   -1.0751 C   0  0
   -0.2569    0.8323    1.6423 C   0  0
   -2.6930   -2.1215    1.0816 C   0  0
   -0.3937    2.2446    1.0550 C   0  0
   -1.4033   -2.0757    1.8982 C   0  0
   -1.3631   -2.7920   -0.9521 C   0  0
    0.3657    3.7541   -0.8698 C   0  0  1  0  0  0
    1.0512    0.0603   -0.4090 C   0  0  2  0  0  0
   -0.0465   -2.7160   -0.1412 C   0  0  2  0  0  0
   -0.1556   -0.2422    0.5301 C   0  0  1  0  0  0
   -2.5807   -3.0972   -0.0848 C   0  0  1  0  0  0
    0.7563    2.6082    0.1012 C   0  0  2  0  0  0
   -0.1350   -1.7243    1.0663 C   0  0  1  0  0  0
    2.0500    2.8951    0.8894 C   0  0
    1.0727   -1.9551    2.0119 C   0  0
    1.6312    8.3462   -0.0511 O   0  0
    0.1398    6.9560    1.0160 O   0  0
   -2.4709   -4.4321    0.4052 O   0  0
    1.9805    6.0688   -1.6171 H   0  0
   -1.3600    5.5862    0.6412 H   0  0
   -0.0567    5.0311    1.7389 H   0  0
    2.1542    1.6180   -2.6986 H   0  0
    0.3828    1.6683   -2.9104 H   0  0
    2.2610    3.8505   -1.9610 H   0  0
    0.8402    3.9960   -3.0005 H   0  0
    2.0397   -0.7769   -2.1490 H   0  0
    0.2887   -0.7936   -2.2571 H   0  0
    1.1194   -3.0642   -1.9405 H   0  0
    2.0763   -2.5880   -0.5565 H   0  0
    0.6171    0.7920    2.3004 H   0  0
   -1.1357    0.6540    2.2692 H   0  0
   -3.5099   -2.4340    1.7437 H   0  0
   -2.9429   -1.1208    0.7129 H   0  0
   -1.3554    2.2956    0.5268 H   0  0
   -0.4568    2.9744    1.8715 H   0  0
   -1.5316   -1.3820    2.7358 H   0  0
   -1.2622   -3.0611    2.3647 H   0  0
   -1.5448   -1.8542   -1.4876 H   0  0
   -1.2576   -3.5754   -1.7135 H   0  0
   -0.6852    3.6338   -1.1733 H   0  0
    1.9812   -0.0349    0.1648 H   0  0
    0.1347   -3.7247    0.2573 H   0  0
   -1.0625   -0.1253   -0.0795 H   0  0
   -3.4889   -3.0495   -0.6954 H   0  0
    1.8675    3.7034    1.5880 H   0  0
    2.8325    3.1784    0.1950 H   0  0
    2.3420    2.0013    1.4285 H   0  0
    1.9812   -1.7224    1.4746 H   0  0
    1.0751   -2.9905    2.3221 H   0  0
    0.9679   -1.3064    2.8702 H   0  0
   -2.4029   -5.0063   -0.3731 H   0  0
  1  2  2  0
  1  3  1  0
  2  5  1  0
  2 15  1  0
  3 24  2  0
  3 25  1  0
  4  6  2  0
  4 16  1  0
  4 20  1  0
  5 25  1  0
  6  7  1  0
  7 15  1  0
  8  9  1  0
  8 16  1  0
  9 17  1  0
 10 12  1  0
 10 18  1  0
 11 13  1  0
 11 19  1  0
 12 20  1  0
 13 21  1  0
 14 17  1  0
 14 19  1  0
 15 20  1  0
 16 18  1  0
 17 21  1  0
 18 21  1  0
 19 26  1  0
 20 22  1  0
 21 23  1  0
  1 27  1  0
  5 28  1  0
  5 29  1  0
  6 30  1  0
  6 31  1  0
  7 32  1  0
  7 33  1  0
  8 34  1  0
  8 35  1  0
  9 36  1  0
  9 37  1  0
 10 38  1  0
 10 39  1  0
 11 40  1  0
 11 41  1  0
 12 42  1  0
 12 43  1  0
 13 44  1  0
 13 45  1  0
 14 46  1  0
 14 47  1  0
 15 48  1  0
 16 49  1  0
 17 50  1  0
 18 51  1  0
 19 52  1  0
 22 53  1  0
 22 54  1  0
 22 55  1  0
 23 56  1  0
 23 57  1  0
 23 58  1  0
 26 59  1  0
M  END
> <Name>
BR010226

$$$$
BR010227
  SciTegic05062102053D

 60 64  0  0  1  0            999 V2000
   -1.3736    5.2534   -1.0219 C   0  0
   -0.2859    5.0117   -0.2951 C   0  0
   -1.1619    6.5482   -1.6710 C   0  0
    0.6932    6.1109   -0.4169 C   0  0
   -1.3377    3.2704    1.1445 C   0  0
   -1.1875   -1.9490   -1.8308 C   0  0
   -1.5049   -0.5139   -1.4233 C   0  0
    1.8491    0.3824    0.3849 C   0  0
    0.8542   -3.0220    1.9131 C   0  0
    1.4649    1.7803    0.8646 C   0  0
    1.7074   -2.7277    0.6826 C   0  0
   -1.5680    1.8738    0.5552 C   0  0
   -1.2064   -3.0283    0.4562 C   0  0
   -0.0163    3.8061    0.5588 C   0  0  1  0  0  0
   -0.3485   -2.7005   -0.7877 C   0  0  2  0  0  0
    0.6148   -0.4585    0.0077 C   0  0  1  0  0  0
   -0.2462    0.2943   -1.0492 C   0  0  2  0  0  0
   -0.4101   -3.7857    1.5211 C   0  0  2  0  0  0
    0.6306    2.5823   -0.1696 C   0  0  2  0  0  0
    0.9658   -1.9331   -0.4326 C   0  0  1  0  0  0
   -0.5979    1.7514   -0.6324 C   0  0  2  0  0  0
    1.5579    3.0032   -1.3289 C   0  0
    1.9130   -1.9404   -1.6614 C   0  0
   -1.9543    7.0947   -2.4187 O   0  0
    0.0582    7.0378   -1.3040 O   0  0
   -1.2427    2.3955   -1.7408 O   0  0
   -1.6401   -4.1147    3.2657 I   0  0
   -2.2518    4.6412   -1.1333 H   0  0
    0.8838    6.6064    0.5395 H   0  0
    1.6364    5.7808   -0.8619 H   0  0
   -2.1930    3.9218    0.9286 H   0  0
   -1.2692    3.1987    2.2367 H   0  0
   -2.1259   -2.4869   -2.0134 H   0  0
   -0.6594   -1.9389   -2.7917 H   0  0
   -2.0272   -0.0261   -2.2553 H   0  0
   -2.2111   -0.5246   -0.5860 H   0  0
    2.5391    0.4629   -0.4604 H   0  0
    2.4045   -0.0990    1.1961 H   0  0
    1.4459   -3.6170    2.6203 H   0  0
    0.6082   -2.0877    2.4313 H   0  0
    0.9170    1.6784    1.8103 H   0  0
    2.3787    2.3351    1.1143 H   0  0
    2.6238   -2.2141    0.9919 H   0  0
    2.0418   -3.6910    0.2716 H   0  0
   -1.3727    1.1260    1.3301 H   0  0
   -2.6145    1.7658    0.2487 H   0  0
   -1.6232   -2.1119    0.8895 H   0  0
   -2.0681   -3.6340    0.1454 H   0  0
    0.6290    4.1475    1.3784 H   0  0
   -0.0718   -3.6663   -1.2353 H   0  0
    0.0091   -0.5317    0.9182 H   0  0
    0.3450    0.3732   -1.9710 H   0  0
   -0.1265   -4.7677    1.1217 H   0  0
    0.9825    3.5641   -2.0558 H   0  0
    1.9707    2.1147   -1.7915 H   0  0
    2.3573    3.6200   -0.9357 H   0  0
    1.4381   -1.3972   -2.4662 H   0  0
    2.0903   -2.9655   -1.9541 H   0  0
    2.8421   -1.4632   -1.3834 H   0  0
   -0.6318    2.3176   -2.4864 H   0  0
  1  2  2  0
  1  3  1  0
  2  4  1  0
  2 14  1  0
  3 24  2  0
  3 25  1  0
  4 25  1  0
  5 12  1  0
  5 14  1  0
  6  7  1  0
  6 15  1  0
  7 17  1  0
  8 10  1  0
  8 16  1  0
  9 11  1  0
  9 18  1  0
 10 19  1  0
 11 20  1  0
 12 21  1  0
 13 15  1  0
 13 18  1  0
 14 19  1  0
 15 20  1  0
 16 17  1  0
 16 20  1  0
 17 21  1  0
 18 27  1  0
 19 21  1  0
 19 22  1  0
 20 23  1  0
 21 26  1  0
  1 28  1  0
  4 29  1  0
  4 30  1  0
  5 31  1  0
  5 32  1  0
  6 33  1  0
  6 34  1  0
  7 35  1  0
  7 36  1  0
  8 37  1  0
  8 38  1  0
  9 39  1  0
  9 40  1  0
 10 41  1  0
 10 42  1  0
 11 43  1  0
 11 44  1  0
 12 45  1  0
 12 46  1  0
 13 47  1  0
 13 48  1  0
 14 49  1  0
 15 50  1  0
 16 51  1  0
 17 52  1  0
 18 53  1  0
 22 54  1  0
 22 55  1  0
 22 56  1  0
 23 57  1  0
 23 58  1  0
 23 59  1  0
 26 60  1  0
M  END
> <Name>
BR010227

$$$$
BR010228
  SciTegic05062102053D

 58 62  0  0  1  0            999 V2000
   -2.4022    2.7540    3.7706 C   0  0
    2.5815   -0.0858   -3.0963 C   0  0
    1.6211   -0.8801   -3.5792 C   0  0
   -3.1474    2.3241    2.7559 C   0  0
   -3.2868    2.8297    4.9345 C   0  0
    3.0511   -0.1427   -1.6776 C   0  0
    0.9306   -1.9142   -2.7481 C   0  0
   -4.5438    2.0934    3.1786 C   0  0
   -1.5730    3.0599    0.9665 C   0  0
    2.7282   -1.1174    0.6341 C   0  0
    1.7927   -0.0549    1.2063 C   0  0
   -1.3957   -0.7939   -0.9521 C   0  0
   -2.2571    0.3713   -0.4696 C   0  0
   -0.2674    2.2542    0.9094 C   0  0
   -2.7003    2.0808    1.3430 C   0  0  1  0  0  0
    2.5213   -1.3549   -0.8677 C   0  0  1  0  0  0
    0.1001   -0.5626   -0.6622 C   0  0  1  0  0  0
    0.3083   -0.2944    0.8604 C   0  0  2  0  0  0
    1.0380   -1.7122   -1.2027 C   0  0  1  0  0  0
   -2.1034    0.6684    1.0450 C   0  0  2  0  0  0
   -0.6040    0.8381    1.4154 C   0  0  2  0  0  0
    0.6671   -3.0797   -0.5713 C   0  0
   -2.8114   -0.4478    1.8408 C   0  0
   -2.9481    3.1869    6.0496 O   0  0
   -4.5418    2.4378    4.5681 O   0  0
   -0.4470    0.8805    2.8415 O   0  0
   -1.3556    3.0050    3.7710 H   0  0
    3.0452    0.6454   -3.7518 H   0  0
    1.3378   -0.7976   -4.6243 H   0  0
    4.1479   -0.1753   -1.6721 H   0  0
    2.7725    0.8065   -1.2090 H   0  0
   -0.1155   -1.9795   -3.0606 H   0  0
    1.3751   -2.8806   -3.0251 H   0  0
   -5.2505    2.7412    2.6518 H   0  0
   -4.8437    1.0469    3.0712 H   0  0
   -1.4826    3.8995    1.6655 H   0  0
   -1.7696    3.4980   -0.0198 H   0  0
    3.7675   -0.8224    0.8253 H   0  0
    2.5800   -2.0559    1.1811 H   0  0
    1.9207   -0.0355    2.2956 H   0  0
    2.1070    0.9324    0.8519 H   0  0
   -1.7430   -1.7232   -0.4903 H   0  0
   -1.5670   -0.8973   -2.0276 H   0  0
   -1.9990    1.2537   -1.0687 H   0  0
   -3.3087    0.1578   -0.7011 H   0  0
    0.0971    2.2513   -0.1227 H   0  0
    0.4982    2.7388    1.5260 H   0  0
   -3.5734    2.2707    0.7054 H   0  0
    3.1472   -2.2151   -1.1490 H   0  0
    0.3751    0.3540   -1.1987 H   0  0
    0.0228   -1.2064    1.4010 H   0  0
    0.7270   -2.9910    0.5043 H   0  0
    1.3659   -3.8243   -0.9257 H   0  0
   -0.3391   -3.3367   -0.8711 H   0  0
   -2.7080   -0.2466    2.9005 H   0  0
   -2.3525   -1.3993    1.5997 H   0  0
   -3.8603   -0.4647    1.5692 H   0  0
   -0.6582   -0.0080    3.1589 H   0  0
  1  4  2  0
  1  5  1  0
  2  3  2  0
  2  6  1  0
  3  7  1  0
  4  8  1  0
  4 15  1  0
  5 24  2  0
  5 25  1  0
  6 16  1  0
  7 19  1  0
  8 25  1  0
  9 14  1  0
  9 15  1  0
 10 11  1  0
 10 16  1  0
 11 18  1  0
 12 13  1  0
 12 17  1  0
 13 20  1  0
 14 21  1  0
 15 20  1  0
 16 19  1  0
 17 18  1  0
 17 19  1  0
 18 21  1  0
 19 22  1  0
 20 21  1  0
 20 23  1  0
 21 26  1  0
  1 27  1  0
  2 28  1  0
  3 29  1  0
  6 30  1  0
  6 31  1  0
  7 32  1  0
  7 33  1  0
  8 34  1  0
  8 35  1  0
  9 36  1  0
  9 37  1  0
 10 38  1  0
 10 39  1  0
 11 40  1  0
 11 41  1  0
 12 42  1  0
 12 43  1  0
 13 44  1  0
 13 45  1  0
 14 46  1  0
 14 47  1  0
 15 48  1  0
 16 49  1  0
 17 50  1  0
 18 51  1  0
 22 52  1  0
 22 53  1  0
 22 54  1  0
 23 55  1  0
 23 56  1  0
 23 57  1  0
 26 58  1  0
M  END
> <Name>
BR010228

$$$$
BR010229
  SciTegic05062102053D

105111  0  0  1  0            999 V2000
    0.7513    5.2945   -0.0139 C   0  0
    0.9641    4.5788    1.1374 C   0  0
    2.4827   13.5500   -7.3355 C   0  0
    3.6063   13.9182   -6.7258 C   0  0
    1.9809   14.7340   -8.0348 C   0  0
    5.7337   -0.7179    1.5111 C   0  0
    3.7293   -2.0374    4.6204 C   0  0
    1.5998   -0.4576   -1.0742 C   0  0
    3.9106   15.3410   -6.9798 C   0  0
    4.5280   11.5930   -6.3243 C   0  0
    4.9886    9.4513   -0.7541 C   0  0
    5.2977    9.9181   -2.1673 C   0  0
    2.3174   12.3709   -2.6909 C   0  0
    0.7837    8.8981   -0.1034 C   0  0
    2.6401   12.7980   -4.1207 C   0  0
    1.1132   10.1539   -0.9053 C   0  0
    4.7647   10.7565   -5.0581 C   0  0
    2.9463    7.9841   -1.1375 C   0  0
    4.4960   13.0633   -5.8811 C   0  0  2  0  0  0
    3.4886    9.2708   -0.4865 C   0  0  2  0  0  0
    3.0399   11.0641   -2.3098 C   0  0  1  0  0  0
    4.5670   11.2303   -2.4992 C   0  0  2  0  0  0
    1.4944    7.6731   -0.7061 C   0  0  1  0  0  0
    3.5385    0.0548    1.9204 C   0  0  2  0  0  0
    3.3135   -0.0376    3.4333 C   0  0  1  0  0  0
    2.2099   -0.0347    1.1699 C   0  0  1  0  0  0
    2.2542    0.9789    3.8811 C   0  0  2  0  0  0
    1.2044    0.9792    1.7245 C   0  0  1  0  0  0
    4.1566   13.0091   -4.3629 C   0  0  2  0  0  0
    2.6341   10.5231   -0.8833 C   0  0  1  0  0  0
    4.9639   11.7605   -3.9042 C   0  0  2  0  0  0
    6.5086   -1.9087    1.0340 C   0  0
    3.1680   -3.3998    4.8936 C   0  0
    1.9496   -0.1123   -2.4900 C   0  0
    1.9024    0.8395    5.3580 C   0  0
    4.6174   14.3066   -3.6703 C   0  0
    2.8456   11.6008    0.2108 C   0  0
    0.5190    3.2213    1.4779 C   0  0
    1.7028    5.3255    2.0127 N   0  0
    1.9580    6.4953    1.4369 N   0  0
    1.3865    6.4747    0.2219 N   0  0
    0.9634   14.7729   -8.7049 O   0  0
    6.2454    0.3362    1.8636 O   0  0
    4.7778   -1.6207    5.0938 O   0  0
    0.6971   -1.2207   -0.7580 O   0  0
    2.8327   15.7775   -7.8147 O   0  0
    1.0402    0.8036    3.1344 O   0  0
    6.3653   12.0758   -3.8359 O   0  0
    4.3968   -0.9975    1.4881 O   0  0
    2.8962   -1.3606    3.7790 O   0  0
    2.4335    0.2036   -0.2165 O   0  0
    1.6149    2.3060    1.3972 O   0  0
    0.2303    5.0780   -0.9359 H   0  0
    2.0091   12.5835   -7.3359 H   0  0
    3.9141   15.9362   -6.0621 H   0  0
    4.8541   15.4755   -7.5167 H   0  0
    5.3278   11.4276   -7.0556 H   0  0
    3.5899   11.2835   -6.8010 H   0  0
    5.5203    8.5122   -0.5577 H   0  0
    5.3977   10.1800   -0.0429 H   0  0
    6.3818   10.0562   -2.2583 H   0  0
    5.0222    9.1315   -2.8786 H   0  0
    2.5897   13.1799   -2.0055 H   0  0
    1.2321   12.2456   -2.6094 H   0  0
    1.0611    9.0429    0.9488 H   0  0
   -0.3003    8.7281   -0.1106 H   0  0
    2.2390   12.0381   -4.8032 H   0  0
    2.0883   13.7204   -4.3419 H   0  0
    0.7772    9.9785   -1.9358 H   0  0
    0.5065   10.9884   -0.5331 H   0  0
    3.8929   10.1134   -4.9004 H   0  0
    5.6358   10.1054   -5.1940 H   0  0
    2.9616    8.0958   -2.2288 H   0  0
    3.6052    7.1362   -0.9110 H   0  0
    5.5115   13.4629   -5.9999 H   0  0
    3.4034    9.1164    0.5994 H   0  0
    2.7111   10.3032   -3.0310 H   0  0
    4.9191   11.9738   -1.7707 H   0  0
    0.9263    7.3280   -1.6064 H   0  0
    4.0415    0.9966    1.6740 H   0  0
    4.2700    0.1406    3.9584 H   0  0
    1.8111   -1.0507    1.2673 H   0  0
    2.6282    1.9940    3.7169 H   0  0
    0.2334    0.8191    1.2451 H   0  0
    6.7566   -2.5534    1.8808 H   0  0
    7.4160   -1.5797    0.5213 H   0  0
    5.8982   -2.4796    0.3283 H   0  0
    2.5156   -3.3634    5.7696 H   0  0
    3.9822   -4.1122    5.0487 H   0  0
    2.5780   -3.7283    4.0330 H   0  0
    1.3791    0.7630   -2.8101 H   0  0
    1.7444   -0.9656   -3.1414 H   0  0
    3.0157    0.1244   -2.5527 H   0  0
    1.5253   -0.1632    5.5575 H   0  0
    1.1368    1.5664    5.6282 H   0  0
    2.7878    1.0134    5.9692 H   0  0
    5.6780   14.4443   -3.8459 H   0  0
    4.4276   14.2267   -2.6063 H   0  0
    4.0644   15.1431   -4.0814 H   0  0
    3.8935   11.8661    0.2376 H   0  0
    2.5387   11.1918    1.1635 H   0  0
    2.2464   12.4665   -0.0355 H   0  0
    0.1032    3.1561    2.5019 H   0  0
   -0.2748    2.8570    0.7977 H   0  0
    6.8167   11.2377   -3.6691 H   0  0
  1  2  2  0
  1 41  1  0
  2 38  1  0
  2 39  1  0
  3  4  2  0
  3  5  1  0
  4  9  1  0
  4 19  1  0
  5 42  2  0
  5 46  1  0
  6 32  1  0
  6 43  2  0
  6 49  1  0
  7 33  1  0
  7 44  2  0
  7 50  1  0
  8 34  1  0
  8 45  2  0
  8 51  1  0
  9 46  1  0
 10 17  1  0
 10 19  1  0
 11 12  1  0
 11 20  1  0
 12 22  1  0
 13 15  1  0
 13 21  1  0
 14 16  1  0
 14 23  1  0
 15 29  1  0
 16 30  1  0
 17 31  1  0
 18 20  1  0
 18 23  1  0
 19 29  1  0
 20 30  1  0
 21 22  1  0
 21 30  1  0
 22 31  1  0
 23 41  1  0
 24 25  1  0
 24 26  1  0
 24 49  1  0
 25 27  1  0
 25 50  1  0
 26 28  1  0
 26 51  1  0
 27 35  1  0
 27 47  1  0
 28 47  1  0
 28 52  1  0
 29 31  1  0
 29 36  1  0
 30 37  1  0
 31 48  1  0
 38 52  1  0
 39 40  2  0
 40 41  1  0
  1 53  1  0
  3 54  1  0
  9 55  1  0
  9 56  1  0
 10 57  1  0
 10 58  1  0
 11 59  1  0
 11 60  1  0
 12 61  1  0
 12 62  1  0
 13 63  1  0
 13 64  1  0
 14 65  1  0
 14 66  1  0
 15 67  1  0
 15 68  1  0
 16 69  1  0
 16 70  1  0
 17 71  1  0
 17 72  1  0
 18 73  1  0
 18 74  1  0
 19 75  1  0
 20 76  1  0
 21 77  1  0
 22 78  1  0
 23 79  1  0
 24 80  1  0
 25 81  1  0
 26 82  1  0
 27 83  1  0
 28 84  1  0
 32 85  1  0
 32 86  1  0
 32 87  1  0
 33 88  1  0
 33 89  1  0
 33 90  1  0
 34 91  1  0
 34 92  1  0
 34 93  1  0
 35 94  1  0
 35 95  1  0
 35 96  1  0
 36 97  1  0
 36 98  1  0
 36 99  1  0
 37100  1  0
 37101  1  0
 37102  1  0
 38103  1  0
 38104  1  0
 48105  1  0
M  END
> <Name>
BR010229

$$$$
BR010230
  SciTegic05062102053D

 90 96  0  0  1  0            999 V2000
    0.7513    5.2945   -0.0139 C   0  0
    0.9641    4.5788    1.1374 C   0  0
    2.4827   13.5500   -7.3355 C   0  0
    3.6063   13.9182   -6.7258 C   0  0
    1.9809   14.7340   -8.0348 C   0  0
    3.9106   15.3410   -6.9798 C   0  0
    4.5280   11.5930   -6.3243 C   0  0
    4.9886    9.4513   -0.7541 C   0  0
    5.2977    9.9181   -2.1673 C   0  0
    2.3174   12.3709   -2.6909 C   0  0
    0.7837    8.8981   -0.1034 C   0  0
    2.6401   12.7980   -4.1207 C   0  0
    1.1132   10.1539   -0.9053 C   0  0
    4.7647   10.7565   -5.0581 C   0  0
    2.9463    7.9841   -1.1375 C   0  0
    4.4960   13.0633   -5.8811 C   0  0  2  0  0  0
    3.4886    9.2708   -0.4865 C   0  0  2  0  0  0
    3.0399   11.0641   -2.3098 C   0  0  1  0  0  0
    4.5670   11.2303   -2.4992 C   0  0  2  0  0  0
    1.4944    7.6731   -0.7061 C   0  0  1  0  0  0
    3.5385    0.0548    1.9204 C   0  0  2  0  0  0
    3.3135   -0.0376    3.4333 C   0  0  1  0  0  0
    2.2099   -0.0347    1.1699 C   0  0  1  0  0  0
    2.2542    0.9789    3.8811 C   0  0  2  0  0  0
    1.2044    0.9792    1.7245 C   0  0  1  0  0  0
    4.1566   13.0091   -4.3629 C   0  0  2  0  0  0
    2.6341   10.5231   -0.8833 C   0  0  1  0  0  0
    4.9639   11.7605   -3.9042 C   0  0  2  0  0  0
    1.9024    0.8395    5.3580 C   0  0
    4.6174   14.3066   -3.6703 C   0  0
    2.8456   11.6008    0.2108 C   0  0
    0.5190    3.2213    1.4779 C   0  0
    1.7028    5.3255    2.0127 N   0  0
    1.9580    6.4953    1.4369 N   0  0
    1.3865    6.4747    0.2219 N   0  0
    0.9634   14.7729   -8.7049 O   0  0
    2.8327   15.7775   -7.8147 O   0  0
    1.0402    0.8036    3.1344 O   0  0
    4.3968   -0.9975    1.4881 O   0  0
    2.8962   -1.3606    3.7790 O   0  0
    2.4335    0.2036   -0.2165 O   0  0
    6.3653   12.0758   -3.8359 O   0  0
    1.6149    2.3060    1.3972 O   0  0
    0.2303    5.0780   -0.9359 H   0  0
    2.0091   12.5835   -7.3359 H   0  0
    3.9141   15.9362   -6.0621 H   0  0
    4.8541   15.4755   -7.5167 H   0  0
    5.3278   11.4276   -7.0556 H   0  0
    3.5899   11.2835   -6.8010 H   0  0
    5.5203    8.5122   -0.5577 H   0  0
    5.3977   10.1800   -0.0429 H   0  0
    6.3818   10.0562   -2.2583 H   0  0
    5.0222    9.1315   -2.8786 H   0  0
    2.5897   13.1799   -2.0055 H   0  0
    1.2321   12.2456   -2.6094 H   0  0
    1.0611    9.0429    0.9488 H   0  0
   -0.3003    8.7281   -0.1106 H   0  0
    2.2390   12.0381   -4.8032 H   0  0
    2.0883   13.7204   -4.3419 H   0  0
    0.7772    9.9785   -1.9358 H   0  0
    0.5065   10.9884   -0.5331 H   0  0
    3.8929   10.1134   -4.9004 H   0  0
    5.6358   10.1054   -5.1940 H   0  0
    2.9616    8.0958   -2.2288 H   0  0
    3.6052    7.1362   -0.9110 H   0  0
    5.5115   13.4629   -5.9999 H   0  0
    3.4034    9.1164    0.5994 H   0  0
    2.7111   10.3032   -3.0310 H   0  0
    4.9191   11.9738   -1.7707 H   0  0
    0.9263    7.3280   -1.6064 H   0  0
    4.0415    0.9966    1.6740 H   0  0
    4.2700    0.1406    3.9584 H   0  0
    1.8111   -1.0507    1.2673 H   0  0
    2.6282    1.9940    3.7169 H   0  0
    0.2334    0.8191    1.2451 H   0  0
    1.5253   -0.1632    5.5575 H   0  0
    1.1368    1.5664    5.6282 H   0  0
    2.7878    1.0134    5.9692 H   0  0
    5.6780   14.4443   -3.8459 H   0  0
    4.4276   14.2267   -2.6063 H   0  0
    4.0644   15.1431   -4.0814 H   0  0
    3.8935   11.8661    0.2376 H   0  0
    2.5387   11.1918    1.1635 H   0  0
    2.2464   12.4665   -0.0355 H   0  0
    0.1032    3.1561    2.5019 H   0  0
   -0.2748    2.8570    0.7977 H   0  0
    5.2335   -0.8853    1.9654 H   0  0
    2.0721   -1.5198    3.2962 H   0  0
    1.5693    0.1377   -0.6526 H   0  0
    6.8167   11.2377   -3.6691 H   0  0
  1  2  2  0
  1 35  1  0
  2 32  1  0
  2 33  1  0
  3  4  2  0
  3  5  1  0
  4  6  1  0
  4 16  1  0
  5 36  2  0
  5 37  1  0
  6 37  1  0
  7 14  1  0
  7 16  1  0
  8  9  1  0
  8 17  1  0
  9 19  1  0
 10 12  1  0
 10 18  1  0
 11 13  1  0
 11 20  1  0
 12 26  1  0
 13 27  1  0
 14 28  1  0
 15 17  1  0
 15 20  1  0
 16 26  1  0
 17 27  1  0
 18 19  1  0
 18 27  1  0
 19 28  1  0
 20 35  1  0
 21 22  1  0
 21 23  1  0
 21 39  1  0
 22 24  1  0
 22 40  1  0
 23 25  1  0
 23 41  1  0
 24 29  1  0
 24 38  1  0
 25 38  1  0
 25 43  1  0
 26 28  1  0
 26 30  1  0
 27 31  1  0
 28 42  1  0
 32 43  1  0
 33 34  2  0
 34 35  1  0
  1 44  1  0
  3 45  1  0
  6 46  1  0
  6 47  1  0
  7 48  1  0
  7 49  1  0
  8 50  1  0
  8 51  1  0
  9 52  1  0
  9 53  1  0
 10 54  1  0
 10 55  1  0
 11 56  1  0
 11 57  1  0
 12 58  1  0
 12 59  1  0
 13 60  1  0
 13 61  1  0
 14 62  1  0
 14 63  1  0
 15 64  1  0
 15 65  1  0
 16 66  1  0
 17 67  1  0
 18 68  1  0
 19 69  1  0
 20 70  1  0
 21 71  1  0
 22 72  1  0
 23 73  1  0
 24 74  1  0
 25 75  1  0
 29 76  1  0
 29 77  1  0
 29 78  1  0
 30 79  1  0
 30 80  1  0
 30 81  1  0
 31 82  1  0
 31 83  1  0
 31 84  1  0
 32 85  1  0
 32 86  1  0
 39 87  1  0
 40 88  1  0
 41 89  1  0
 42 90  1  0
M  END
> <Name>
BR010230

$$$$
BR010231
  SciTegic05062102053D

 85 86  0  0  1  0            999 V2000
    7.9264   -3.6738   -8.3019 C   0  0
    7.0363   -3.9912   -7.5617 C   0  0
   -3.8068   -2.9411   -0.2798 C   0  0
    4.2012   -2.2151   -0.5689 C   0  0
   -2.7138    0.5617    0.7977 C   0  0
   -1.0772   -5.2197   -1.8727 C   0  0
    6.9977   -2.3528   -3.2783 C   0  0
    2.5465    2.4081   -1.8445 C   0  0
   -0.2512   -2.2206   -6.7523 C   0  0
   -1.8585   -1.8211   -1.0105 C   0  0  1  0  0  0
    3.5158   -3.0091   -2.6864 C   0  0  1  0  0  0
   -1.1356   -0.5498   -0.5653 C   0  0  1  0  0  0
    2.1923   -2.9847   -3.4511 C   0  0  1  0  0  0
   -0.8646   -2.9128   -1.4075 C   0  0  2  0  0  0
    4.7019   -2.7914   -3.6261 C   0  0  2  0  0  0
   -0.0703   -0.1447   -1.5868 C   0  0  1  0  0  0
    2.2543   -3.9036   -4.6735 C   0  0  1  0  0  0
    0.2035   -2.3731   -2.3586 C   0  0  1  0  0  0
    4.6126   -3.6980   -4.8536 C   0  0  1  0  0  0
   -4.5419   -3.3730    0.9527 C   0  0
    4.0892   -1.0427    0.3579 C   0  0
   -3.7034    1.6871    0.8006 C   0  0
   -1.9316   -6.2160   -2.5963 C   0  0
    8.1755   -2.7573   -2.4445 C   0  0
    3.5087    2.6070   -2.9763 C   0  0
   -0.2827   -0.7727   -7.1377 C   0  0
    5.9512   -4.3806   -6.6605 C   0  0
    0.7538    1.0506   -1.1185 C   0  0
    0.9940   -3.8129   -5.5284 C   0  0
   -4.1966   -3.1536   -1.4200 O   0  0
    4.8376   -3.2294   -0.3169 O   0  0
   -2.4994   -0.1647    1.7588 O   0  0
   -0.0792   -5.5129   -1.2284 O   0  0
    7.0385   -1.4980   -4.1529 O   0  0
    2.5221    3.1008   -0.8362 O   0  0
   -1.0904   -3.0405   -7.0995 O   0  0
    0.8388   -1.2265   -1.7980 O   0  0
    3.3554   -3.5341   -5.5055 O   0  0
   -2.6613   -2.2897    0.0744 O   0  0
    3.4941   -1.9671   -1.7093 O   0  0
   -2.1066    0.4838   -0.4234 O   0  0
   -1.5853   -3.9647   -2.0477 O   0  0
    5.9015   -3.0777   -2.9084 O   0  0
    1.7173    1.3507   -2.1116 O   0  0
    0.8419   -2.4751   -5.9664 O   0  0
    1.1656   -3.4063   -2.5667 O   0  0
    5.6693   -3.3364   -5.7418 O   0  0
    8.7162   -3.3923   -8.9586 H   0  0
   -2.5490   -1.6021   -1.8347 H   0  0
    3.6227   -3.9505   -2.1329 H   0  0
   -0.6849   -0.7233    0.4204 H   0  0
    1.9731   -1.9516   -3.7503 H   0  0
   -0.4027   -3.3417   -0.5092 H   0  0
    4.7521   -1.7369   -3.9258 H   0  0
   -0.5376    0.1277   -2.5424 H   0  0
    2.3703   -4.9502   -4.3624 H   0  0
   -0.2305   -2.1267   -3.3359 H   0  0
    4.7620   -4.7492   -4.5760 H   0  0
   -4.2135   -4.3721    1.2495 H   0  0
   -5.6187   -3.3609    0.7657 H   0  0
   -4.3229   -2.6775    1.7680 H   0  0
    4.8974   -0.3344    0.1594 H   0  0
    4.1230   -1.3853    1.3952 H   0  0
    3.1337   -0.5374    0.1896 H   0  0
   -3.2151    2.6096    1.1243 H   0  0
   -4.5411    1.4429    1.4587 H   0  0
   -4.0887    1.8338   -0.2127 H   0  0
   -2.7209   -6.5786   -1.9332 H   0  0
   -1.3147   -7.0455   -2.9510 H   0  0
   -2.3969   -5.7342   -3.4612 H   0  0
    8.2241   -2.1374   -1.5459 H   0  0
    9.0941   -2.6616   -3.0290 H   0  0
    8.0635   -3.8024   -2.1415 H   0  0
    4.4129    2.0186   -2.8021 H   0  0
    3.7520    3.6680   -3.0741 H   0  0
    3.0468    2.2689   -3.9085 H   0  0
   -0.8445   -0.2029   -6.3934 H   0  0
   -0.7323   -0.6621   -8.1277 H   0  0
    0.7395   -0.3849   -7.1749 H   0  0
    6.2076   -5.2812   -6.0942 H   0  0
    5.0369   -4.5865   -7.2249 H   0  0
    1.2619    0.8093   -0.1848 H   0  0
    0.1060    1.9149   -0.9720 H   0  0
    0.1233   -4.1003   -4.9391 H   0  0
    1.0842   -4.4678   -6.3951 H   0  0
  1  2  3  0
  2 27  1  0
  3 20  1  0
  3 30  2  0
  3 39  1  0
  4 21  1  0
  4 31  2  0
  4 40  1  0
  5 22  1  0
  5 32  2  0
  5 41  1  0
  6 23  1  0
  6 33  2  0
  6 42  1  0
  7 24  1  0
  7 34  2  0
  7 43  1  0
  8 25  1  0
  8 35  2  0
  8 44  1  0
  9 26  1  0
  9 36  2  0
  9 45  1  0
 10 12  1  0
 10 14  1  0
 10 39  1  0
 11 13  1  0
 11 15  1  0
 11 40  1  0
 12 16  1  0
 12 41  1  0
 13 17  1  0
 13 46  1  0
 14 18  1  0
 14 42  1  0
 15 19  1  0
 15 43  1  0
 16 28  1  0
 16 37  1  0
 17 29  1  0
 17 38  1  0
 18 37  1  0
 18 46  1  0
 19 38  1  0
 19 47  1  0
 27 47  1  0
 28 44  1  0
 29 45  1  0
  1 48  1  0
 10 49  1  0
 11 50  1  0
 12 51  1  0
 13 52  1  0
 14 53  1  0
 15 54  1  0
 16 55  1  0
 17 56  1  0
 18 57  1  0
 19 58  1  0
 20 59  1  0
 20 60  1  0
 20 61  1  0
 21 62  1  0
 21 63  1  0
 21 64  1  0
 22 65  1  0
 22 66  1  0
 22 67  1  0
 23 68  1  0
 23 69  1  0
 23 70  1  0
 24 71  1  0
 24 72  1  0
 24 73  1  0
 25 74  1  0
 25 75  1  0
 25 76  1  0
 26 77  1  0
 26 78  1  0
 26 79  1  0
 27 80  1  0
 27 81  1  0
 28 82  1  0
 28 83  1  0
 29 84  1  0
 29 85  1  0
M  END
> <Name>
BR010231

$$$$
BR010232
  SciTegic05062102053D

 57 59  0  0  1  0            999 V2000
    5.4304    2.3715   -4.6425 C   0  0
    4.3615    1.9792   -4.2620 C   0  0
    5.9859   -2.1446    1.7676 C   0  0
    5.2606   -3.1693    1.1261 C   0  0
    5.5537   -0.8163    1.7140 C   0  0
    4.0887   -2.8861    0.4187 C   0  0
    4.3948   -0.5603    1.0105 C   0  0
    3.6809   -1.5686    0.3796 C   0  0
    3.6986    0.7037    0.7742 C   0  0
    2.5179   -0.9635   -0.2692 C   0  0
    0.0127    0.2049    2.3370 C   0  0
   -2.8736    2.2660    0.6703 C   0  0
   -2.2982    5.1170   -2.7407 C   0  0
    1.6220    1.3574   -0.4436 C   0  0  2  0  0  0
    0.2413    1.0378    0.1375 C   0  0  2  0  0  0
   -0.8492    1.9060   -0.4941 C   0  0  1  0  0  0
   -0.7469    1.8756   -2.0212 C   0  0  1  0  0  0
    1.5818    1.3979   -1.9751 C   0  0  1  0  0  0
    0.0782    0.6110    3.7782 C   0  0
   -4.1673    1.6078    1.0437 C   0  0
   -1.9110    6.4508   -2.1775 C   0  0
    3.0583    1.4998   -3.8006 C   0  0
   -1.7426    2.8209   -2.6858 C   0  0
    2.5937    0.3847    0.0115 N   0  0
    4.0757    1.7811    1.1962 O   0  0
    1.6941   -1.5896   -0.9099 O   0  0
   -0.2363   -0.9308    1.9559 O   0  0
   -2.5672    3.4062    0.9917 O   0  0
   -3.2125    4.9484   -3.5361 O   0  0
    0.5606    2.2870   -2.4243 O   0  0
    0.2710    1.2851    1.5447 O   0  0
   -2.1138    1.4048   -0.0692 O   0  0
   -1.4845    4.1379   -2.2344 O   0  0
    2.8492    1.8575   -2.4434 O   0  0
    6.3787    2.7194   -4.9800 H   0  0
    6.8939   -2.3935    2.3109 H   0  0
    5.6199   -4.1935    1.1837 H   0  0
    6.1117   -0.0289    2.2068 H   0  0
    3.5317   -3.6740   -0.0742 H   0  0
    1.9715    2.3219   -0.0536 H   0  0
    0.0039   -0.0259    0.0063 H   0  0
   -0.7511    2.9317   -0.1160 H   0  0
   -0.9430    0.8642   -2.4009 H   0  0
    1.4113    0.3972   -2.3927 H   0  0
    1.0970    0.4856    4.1529 H   0  0
   -0.6245    0.0133    4.3643 H   0  0
   -0.2002    1.6648    3.8709 H   0  0
   -4.9185    1.8037    0.2746 H   0  0
   -4.5047    1.9775    2.0153 H   0  0
   -4.0164    0.5268    1.1164 H   0  0
   -2.4687    6.6408   -1.2572 H   0  0
   -2.1040    7.2347   -2.9142 H   0  0
   -0.8424    6.4492   -1.9435 H   0  0
    2.9802    0.4117   -3.8887 H   0  0
    2.2528    1.9443   -4.3926 H   0  0
   -2.7604    2.5402   -2.4145 H   0  0
   -1.6269    2.7822   -3.7691 H   0  0
  1  2  3  0
  2 22  1  0
  3  4  2  0
  3  5  1  0
  4  6  1  0
  5  7  2  0
  6  8  2  0
  7  8  1  0
  7  9  1  0
  8 10  1  0
  9 24  1  0
  9 25  2  0
 10 24  1  0
 10 26  2  0
 11 19  1  0
 11 27  2  0
 11 31  1  0
 12 20  1  0
 12 28  2  0
 12 32  1  0
 13 21  1  0
 13 29  2  0
 13 33  1  0
 14 15  1  0
 14 18  1  0
 14 24  1  0
 15 16  1  0
 15 31  1  0
 16 17  1  0
 16 32  1  0
 17 23  1  0
 17 30  1  0
 18 30  1  0
 18 34  1  0
 22 34  1  0
 23 33  1  0
  1 35  1  0
  3 36  1  0
  4 37  1  0
  5 38  1  0
  6 39  1  0
 14 40  1  0
 15 41  1  0
 16 42  1  0
 17 43  1  0
 18 44  1  0
 19 45  1  0
 19 46  1  0
 19 47  1  0
 20 48  1  0
 20 49  1  0
 20 50  1  0
 21 51  1  0
 21 52  1  0
 21 53  1  0
 22 54  1  0
 22 55  1  0
 23 56  1  0
 23 57  1  0
M  END
> <Name>
BR010232

$$$$
BR010233
  SciTegic05062102053D

 43 43  0  0  1  0            999 V2000
    4.8195   -5.3734    4.6374 C   0  0
    4.1359   -4.4358    4.3298 C   0  0
   -2.4114   -1.6977   -0.0149 C   0  0
    0.8442   -0.8489   -2.0171 C   0  0
   -0.9519   -4.8668    1.7456 C   0  0
   -0.2942   -1.8943    1.0160 C   0  0  2  0  0  0
    0.5970   -0.8565    0.3330 C   0  0  1  0  0  0
    0.5400   -3.0409    1.5898 C   0  0  1  0  0  0
    1.7054   -0.4106    1.2923 C   0  0  2  0  0  0
    1.6884   -2.4987    2.4452 C   0  0  2  0  0  0
   -3.3044   -2.3367   -1.0348 C   0  0
    1.5131   -1.5704   -3.1475 C   0  0
   -1.8021   -5.6320    2.7139 C   0  0
    2.6796    0.5748    0.6582 C   0  0
    3.3038   -3.2915    3.9568 C   0  0
   -2.7086   -0.6989    0.6264 O   0  0
    0.1202    0.1271   -2.1600 O   0  0
   -0.8639   -5.1304    0.5540 O   0  0
    2.4653   -1.5482    1.7185 O   0  0
   -1.2411   -2.3966    0.0773 O   0  0
    1.1703   -1.4474   -0.8353 O   0  0
   -0.3093   -3.8543    2.3982 O   0  0
    2.5077   -3.6039    2.8244 O   0  0
    5.4262   -6.2052    4.9102 H   0  0
   -0.8669   -1.4144    1.8197 H   0  0
   -0.0109   -0.0069    0.0013 H   0  0
    0.9181   -3.6781    0.7811 H   0  0
    1.2631    0.0654    2.1771 H   0  0
    1.3056   -2.0421    3.3668 H   0  0
   -3.1135   -1.9023   -2.0192 H   0  0
   -4.3506   -2.2000   -0.7495 H   0  0
   -3.0938   -3.4091   -1.0802 H   0  0
    2.4949   -1.1305   -3.3390 H   0  0
    0.8870   -1.5200   -4.0420 H   0  0
    1.6488   -2.6216   -2.8771 H   0  0
   -1.2229   -6.4492    3.1507 H   0  0
   -2.6891   -6.0174    2.2047 H   0  0
   -2.1255   -4.9650    3.5184 H   0  0
    3.1367    0.1301   -0.2257 H   0  0
    3.4635    0.8337    1.3698 H   0  0
    2.1529    1.4831    0.3654 H   0  0
    3.9149   -2.4150    3.7202 H   0  0
    2.6306   -3.0215    4.7759 H   0  0
  1  2  3  0
  2 15  1  0
  3 11  1  0
  3 16  2  0
  3 20  1  0
  4 12  1  0
  4 17  2  0
  4 21  1  0
  5 13  1  0
  5 18  2  0
  5 22  1  0
  6  7  1  0
  6  8  1  0
  6 20  1  0
  7  9  1  0
  7 21  1  0
  8 10  1  0
  8 22  1  0
  9 14  1  0
  9 19  1  0
 10 19  1  0
 10 23  1  0
 15 23  1  0
  1 24  1  0
  6 25  1  0
  7 26  1  0
  8 27  1  0
  9 28  1  0
 10 29  1  0
 11 30  1  0
 11 31  1  0
 11 32  1  0
 12 33  1  0
 12 34  1  0
 12 35  1  0
 13 36  1  0
 13 37  1  0
 13 38  1  0
 14 39  1  0
 14 40  1  0
 14 41  1  0
 15 42  1  0
 15 43  1  0
M  END
> <Name>
BR010233

$$$$
BR010234
  SciTegic05062102053D

 43 43  0  0  1  0            999 V2000
    5.1615   -0.6456    5.4504 C   0  0
    4.4567   -1.1785    4.6378 C   0  0
   -1.7295    1.3139    3.2828 C   0  0
   -0.3889    2.3940   -0.1486 C   0  0
   -1.2438   -3.0303    2.4412 C   0  0
    0.0795    0.3200    2.1324 C   0  0  2  0  0  0
    0.6693    0.4725    0.7298 C   0  0  2  0  0  0
    0.1556   -1.1333    2.6033 C   0  0  2  0  0  0
    2.0728   -0.1471    0.6776 C   0  0  2  0  0  0
    1.5755   -1.6787    2.4622 C   0  0  1  0  0  0
   -3.1625    1.7231    3.1242 C   0  0
   -0.1797    3.8544   -0.4124 C   0  0
   -2.1192   -3.7878    1.4894 C   0  0
    2.6441   -0.1504   -0.7376 C   0  0
    3.5992   -1.8300    3.6472 C   0  0
   -1.0826    1.4679    4.3099 O   0  0
   -1.4193    1.7903   -0.4149 O   0  0
   -1.0578   -3.3538    3.6065 O   0  0
    2.0513   -1.5071    1.1229 O   0  0
   -1.2779    0.7561    2.1208 O   0  0
    0.7320    1.8633    0.4236 O   0  0
   -0.7049   -1.9491    1.8068 O   0  0
    2.4252   -1.0625    3.4237 O   0  0
    5.7868   -0.1730    6.1715 H   0  0
    0.6172    0.9743    2.8287 H   0  0
    0.0000    0.0000   -0.0001 H   0  0
   -0.1912   -1.2032    3.6403 H   0  0
    2.7642    0.4260    1.3082 H   0  0
    1.5715   -2.7574    2.6575 H   0  0
   -3.2163    2.7507    2.7566 H   0  0
   -3.6834    1.6278    4.0803 H   0  0
   -3.6486    1.0666    2.3966 H   0  0
   -0.4988    4.4374    0.4550 H   0  0
   -0.7364    4.1537   -1.3040 H   0  0
    0.8836    4.0427   -0.5870 H   0  0
   -3.1414   -3.4050    1.5408 H   0  0
   -2.0941   -4.8536    1.7305 H   0  0
   -1.7474   -3.6534    0.4695 H   0  0
    1.9867   -0.7109   -1.4006 H   0  0
    3.6294   -0.6144   -0.7376 H   0  0
    2.7317    0.8716   -1.1035 H   0  0
    3.3022   -2.8312    3.9744 H   0  0
    4.1219   -1.9294    2.6912 H   0  0
  1  2  3  0
  2 15  1  0
  3 11  1  0
  3 16  2  0
  3 20  1  0
  4 12  1  0
  4 17  2  0
  4 21  1  0
  5 13  1  0
  5 18  2  0
  5 22  1  0
  6  7  1  0
  6  8  1  0
  6 20  1  0
  7  9  1  0
  7 21  1  0
  8 10  1  0
  8 22  1  0
  9 14  1  0
  9 19  1  0
 10 19  1  0
 10 23  1  0
 15 23  1  0
  1 24  1  0
  6 25  1  0
  7 26  1  0
  8 27  1  0
  9 28  1  0
 10 29  1  0
 11 30  1  0
 11 31  1  0
 11 32  1  0
 12 33  1  0
 12 34  1  0
 12 35  1  0
 13 36  1  0
 13 37  1  0
 13 38  1  0
 14 39  1  0
 14 40  1  0
 14 41  1  0
 15 42  1  0
 15 43  1  0
M  END
> <Name>
BR010234

$$$$
BR010235
  SciTegic05062102053D

 43 43  0  0  1  0            999 V2000
    4.1985    2.7398    4.8831 C   0  0
    3.0442    2.8691    4.5796 C   0  0
    0.9993    1.7944   -2.1629 C   0  0
   -2.2191    0.0796   -0.7042 C   0  0
    0.2643    5.6735    0.7099 C   0  0
    0.4032    2.1243    0.0997 C   0  0  2  0  0  0
   -0.3745    0.8785    0.5369 C   0  0  1  0  0  0
   -0.0010    3.3360    0.9392 C   0  0  1  0  0  0
   -0.2549    0.6764    2.0537 C   0  0  2  0  0  0
    0.0998    3.0178    2.4343 C   0  0  1  0  0  0
    0.6193    2.1713   -3.5628 C   0  0
   -3.6650    0.3458   -0.9952 C   0  0
    1.2616    6.7296    0.3411 C   0  0
   -1.1155   -0.4775    2.5561 C   0  0
    1.6368    3.0274    4.2121 C   0  0
    1.9316    1.0535   -1.8819 O   0  0
   -1.5811   -0.8441   -1.1908 O   0  0
   -0.8892    5.9074    1.0444 O   0  0
   -0.6737    1.8580    2.7540 O   0  0
    0.1540    2.3989   -1.2763 O   0  0
   -1.7496    1.0149    0.1703 O   0  0
    0.8408    4.4381    0.6140 O   0  0
    1.4674    2.8667    2.8123 O   0  0
    5.2225    2.6252    5.1525 H   0  0
    1.4799    1.9466    0.1983 H   0  0
    0.0119   -0.0045   -0.0047 H   0  0
   -1.0277    3.6219    0.6846 H   0  0
    0.7857    0.4601    2.3135 H   0  0
   -0.3007    3.8618    3.0061 H   0  0
   -0.1048    1.4538   -3.9565 H   0  0
    1.5114    2.2041   -4.1932 H   0  0
    0.1597    3.1640   -3.5590 H   0  0
   -4.2923   -0.1899   -0.2785 H   0  0
   -3.9001    0.0396   -2.0177 H   0  0
   -3.8629    1.4174   -0.8990 H   0  0
    1.8058    7.0531    1.2319 H   0  0
    0.7509    7.5750   -0.1268 H   0  0
    1.9786    6.3171   -0.3748 H   0  0
   -2.1619   -0.2943    2.3133 H   0  0
   -1.0141   -0.5740    3.6368 H   0  0
   -0.8003   -1.4087    2.0859 H   0  0
    1.2595    4.0146    4.4962 H   0  0
    1.0209    2.2745    4.7130 H   0  0
  1  2  3  0
  2 15  1  0
  3 11  1  0
  3 16  2  0
  3 20  1  0
  4 12  1  0
  4 17  2  0
  4 21  1  0
  5 13  1  0
  5 18  2  0
  5 22  1  0
  6  7  1  0
  6  8  1  0
  6 20  1  0
  7  9  1  0
  7 21  1  0
  8 10  1  0
  8 22  1  0
  9 14  1  0
  9 19  1  0
 10 19  1  0
 10 23  1  0
 15 23  1  0
  1 24  1  0
  6 25  1  0
  7 26  1  0
  8 27  1  0
  9 28  1  0
 10 29  1  0
 11 30  1  0
 11 31  1  0
 11 32  1  0
 12 33  1  0
 12 34  1  0
 12 35  1  0
 13 36  1  0
 13 37  1  0
 13 38  1  0
 14 39  1  0
 14 40  1  0
 14 41  1  0
 15 42  1  0
 15 43  1  0
M  END
> <Name>
BR010235

$$$$
BR010236
  SciTegic05062102053D

 54 54  0  0  1  0            999 V2000
    3.3045    0.5144    1.1875 C   0  0
   -0.5547    0.5239    2.2914 C   0  0
   -2.8559    2.3188    0.6646 C   0  0
   -2.2452    5.1729   -2.7375 C   0  0
    1.6326    1.3683   -0.4429 C   0  0  2  0  0  0
    0.2477    1.0609    0.1346 C   0  0  2  0  0  0
   -0.8328    1.9416   -0.4968 C   0  0  1  0  0  0
   -0.7278    1.9143   -2.0238 C   0  0  1  0  0  0
    1.5960    1.4133   -1.9744 C   0  0  1  0  0  0
    4.2379   -0.6186    1.4587 C   0  0
   -0.4179    0.8876    3.7388 C   0  0
   -4.1568    1.6725    1.0336 C   0  0
   -1.8458    6.5013   -2.1700 C   0  0
    4.7414    1.6555   -5.6791 C   0  0
   -1.7127    2.8712   -2.6878 C   0  0
    4.4533    1.9896   -4.2265 C   0  0
    3.0771    1.5053   -3.7967 C   0  0
    2.5937    0.3847    0.0115 N   0  0
    3.2305    1.4407    1.9864 O   0  0
   -1.3060   -0.3458    1.8716 O   0  0
   -2.5388    3.4549    0.9897 O   0  0
   -3.1595    5.0156   -3.5353 O   0  0
    0.5845    2.3138   -2.4232 O   0  0
    0.2770    1.3041    1.5425 O   0  0
   -2.1032    1.4519   -0.0757 O   0  0
   -1.4423    4.1844   -2.2324 O   0  0
    2.8687    1.8615   -2.4389 O   0  0
    1.9910    2.3282   -0.0497 H   0  0
   -0.0001    0.0000    0.0001 H   0  0
   -0.7252    2.9653   -0.1157 H   0  0
   -0.9332    0.9060   -2.4066 H   0  0
    1.4162    0.4154   -2.3950 H   0  0
    5.2403   -0.4484    1.0342 H   0  0
    4.4016   -0.7798    2.5364 H   0  0
    3.9187   -1.5968    1.0649 H   0  0
    0.3644    0.2808    4.2014 H   0  0
   -1.3726    0.7409    4.2500 H   0  0
   -0.1370    1.9415    3.8229 H   0  0
   -4.9045    1.8779    0.2636 H   0  0
   -4.4924    2.0429    2.0055 H   0  0
   -4.0168    0.5899    1.1037 H   0  0
   -2.4035    6.6944   -1.2503 H   0  0
   -2.0296    7.2890   -2.9050 H   0  0
   -0.7778    6.4884   -1.9339 H   0  0
    4.6728    0.5771   -5.8544 H   0  0
    4.0185    2.1525   -6.3336 H   0  0
    5.7441    1.9875   -5.9665 H   0  0
   -2.7338    2.6000   -2.4192 H   0  0
   -1.5952    2.8343   -3.7709 H   0  0
    4.5271    3.0727   -4.0719 H   0  0
    5.2190    1.5409   -3.5822 H   0  0
    2.2925    1.9692   -4.4029 H   0  0
    3.0000    0.4170   -3.8870 H   0  0
    2.7518   -0.4374   -0.5610 H   0  0
  1 10  1  0
  1 18  1  0
  1 19  2  0
  2 11  1  0
  2 20  2  0
  2 24  1  0
  3 12  1  0
  3 21  2  0
  3 25  1  0
  4 13  1  0
  4 22  2  0
  4 26  1  0
  5  6  1  0
  5  9  1  0
  5 18  1  0
  6  7  1  0
  6 24  1  0
  7  8  1  0
  7 25  1  0
  8 15  1  0
  8 23  1  0
  9 23  1  0
  9 27  1  0
 14 16  1  0
 15 26  1  0
 16 17  1  0
 17 27  1  0
  5 28  1  0
  6 29  1  0
  7 30  1  0
  8 31  1  0
  9 32  1  0
 10 33  1  0
 10 34  1  0
 10 35  1  0
 11 36  1  0
 11 37  1  0
 11 38  1  0
 12 39  1  0
 12 40  1  0
 12 41  1  0
 13 42  1  0
 13 43  1  0
 13 44  1  0
 14 45  1  0
 14 46  1  0
 14 47  1  0
 15 48  1  0
 15 49  1  0
 16 50  1  0
 16 51  1  0
 17 52  1  0
 17 53  1  0
 18 54  1  0
M  END
> <Name>
BR010236

$$$$
BR010237
  SciTegic05062102053D

168176  0  0  1  0            999 V2000
   13.4453  -12.1024   -0.8346 C   0  0
    6.7771  -12.9417  -10.3351 C   0  0
   18.1550   -7.3184   -6.7856 C   0  0
   13.9070  -10.8311   -0.4937 C   0  0
   13.0809  -12.3821   -2.1517 C   0  0
    5.5998  -12.3482   -9.8800 C   0  0
    7.9328  -12.1748  -10.4832 C   0  0
   17.8852   -8.6194   -6.3611 C   0  0
   17.1054   -6.4338   -7.0336 C   0  0
   14.0042   -9.8394   -1.4698 C   0  0
   13.1781  -11.3905   -3.1278 C   0  0
    5.5780  -10.9877   -9.5732 C   0  0
    7.9111  -10.8143  -10.1764 C   0  0
   16.5657   -9.0359   -6.1848 C   0  0
   15.7859   -6.8503   -6.8572 C   0  0
    6.6189   -5.8804   -0.6054 C   0  0
   13.6397  -10.1191   -2.7869 C   0  0
    6.7337  -10.2207   -9.7213 C   0  0
   15.5160   -8.1513   -6.4328 C   0  0
    6.2029   -4.5835   -0.7733 C   0  0
    9.9300   -4.5391   -8.1975 C   0  0
   11.0981   -5.1944   -7.9606 C   0  0
    7.8481   -4.2415   -6.7903 C   0  0
   13.7432   -9.0629   -3.8265 C   0  0
    6.7105   -8.7725   -9.3948 C   0  0
    9.2547   -1.4717   -6.4602 C   0  0
    6.2635  -11.6817    2.7595 C   0  0
    8.6712  -11.3083   -0.9300 C   0  0
    5.9411   -7.8217    3.2179 C   0  0
    9.6991  -10.1850   -6.2872 C   0  0
    2.6131  -10.4664   -3.2026 C   0  0
    8.1361   -4.1638   -3.0366 C   0  0
   13.0666   -8.1369   -8.5177 C   0  0
   10.4291   -7.0046   -9.6994 C   0  0
    7.6316   -7.0343   -4.0959 C   0  0
    7.1469   -9.1705   -6.2985 C   0  0
    9.2692   -3.7460   -7.1021 C   0  0  2  0  0  0
   11.5282   -6.3659   -8.8242 C   0  0  2  0  0  0
    8.3545   -6.8471   -7.0789 C   0  0  1  0  0  0
    8.2340   -8.2272   -4.8077 C   0  0  2  0  0  0
    8.0176   -5.7381   -4.7987 C   0  0  1  0  0  0
    8.0365   -6.9811   -8.6162 C   0  0  1  0  0  0
    5.9169  -10.0839    1.0537 C   0  0  2  0  0  0
    6.5021  -10.7038   -0.2131 C   0  0  1  0  0  0
    5.9289   -8.5562    0.9719 C   0  0  1  0  0  0
    5.8292  -10.1537   -1.4730 C   0  0  1  0  0  0
    5.2841   -8.0775   -0.3401 C   0  0  1  0  0  0
    9.1940   -4.7759   -9.5288 C   0  0
    7.5724   -5.7113   -6.2962 C   0  0  1  0  0  0
    9.0320   -6.3236   -9.6637 C   0  0  1  0  0  0
    8.3736   -8.2299   -6.3552 C   0  0  1  0  0  0
   12.0070   -4.9011   -6.7917 C   0  0
    9.2341   -0.0779   -7.0106 C   0  0
    7.1517  -12.0121    3.9205 C   0  0
   10.0943  -10.8387   -0.9491 C   0  0
    5.0586   -7.2706    4.2966 C   0  0
    9.7301  -11.1617   -7.4235 C   0  0
    2.1943   -9.7773   -4.4659 C   0  0
   10.0744   -4.1722  -10.6715 C   0  0
    7.8292   -4.0650   -9.7459 C   0  0
    6.0331   -5.8921   -6.4001 C   0  0
    7.0266   -3.3404   -0.9265 C   0  0
    7.3583   -3.0404   -2.3896 C   0  0
    4.4118  -10.6782   -1.6848 C   0  0
   14.0804   -8.6038   -6.2414 C   0  0  1  0  0  0
   13.4955   -9.2090   -7.5305 C   0  0  2  0  0  0
    4.8365   -4.5380   -0.7916 N   0  0
    4.3847   -5.7779   -0.6379 N   0  0
    5.4550   -6.5812   -0.5263 N   0  0
   13.9358   -9.5106   -5.1226 N   0  0
    6.9237   -3.4164   -6.8293 O   0  0
   13.6757   -7.8830   -3.4919 O   0  0
    5.7136   -8.0762   -9.5082 O   0  0
    9.2730   -1.7364   -5.2658 O   0  0
    5.3150  -12.3687    2.4051 O   0  0
    8.2925  -12.3672   -1.4122 O   0  0
    7.1366   -8.0422    3.3567 O   0  0
    9.7807  -10.5025   -5.1084 O   0  0
    1.9030  -11.2426   -2.5777 O   0  0
    9.2380   -4.5566   -2.6791 O   0  0
   13.5523   -7.9845   -9.6312 O   0  0
    7.2687   -9.3113   -4.8647 O   0  0
    5.8596   -8.7206   -1.4823 O   0  0
    8.4354   -6.5717  -10.9583 O   0  0
   14.4659  -10.0289   -8.1688 O   0  0
    7.9312   -8.3726   -8.9666 O   0  0
    9.2505   -2.3799   -7.4845 O   0  0
   12.0502   -7.4011   -7.9816 O   0  0
    6.6786  -10.5177    2.1785 O   0  0
    7.8945  -10.3806   -0.3023 O   0  0
    5.2073   -8.0299    2.0861 O   0  0
    7.4084   -4.6620   -4.0805 O   0  0
    9.5686   -8.9384   -6.7953 O   0  0
    3.8888  -10.0975   -2.8652 O   0  0
   13.3696  -12.8745   -0.0745 H   0  0
    6.7940  -14.0010  -10.5740 H   0  0
   19.1825   -6.9939   -6.9216 H   0  0
   14.1905  -10.6134    0.5319 H   0  0
   12.7217  -13.3721   -2.4172 H   0  0
    4.7000  -12.9454   -9.7649 H   0  0
    8.8496  -12.6370  -10.8372 H   0  0
   18.7023   -9.3080   -6.1669 H   0  0
   17.3151   -5.4205   -7.3630 H   0  0
   14.3652   -8.8522   -1.1932 H   0  0
   12.8913  -11.6197   -4.1509 H   0  0
    4.6551  -10.5353   -9.2193 H   0  0
    8.8176  -10.2264  -10.2957 H   0  0
   16.3648  -10.0515   -5.8539 H   0  0
   14.9745   -6.1543   -7.0530 H   0  0
    7.5932   -6.3439   -0.5398 H   0  0
   10.7985   -6.9861  -10.7358 H   0  0
   10.3327   -8.0765   -9.4863 H   0  0
    6.5400   -7.1149   -4.0218 H   0  0
    7.9732   -7.0074   -3.0532 H   0  0
    6.1764   -8.7720   -6.5945 H   0  0
    7.2838  -10.1361   -6.7970 H   0  0
    9.8053   -3.7971   -6.1524 H   0  0
   12.3628   -6.0388   -9.4559 H   0  0
    9.3930   -6.5507   -6.9882 H   0  0
    9.1510   -8.5591   -4.3033 H   0  0
    9.1056   -5.5976   -4.7341 H   0  0
    7.0319   -6.5971   -8.8039 H   0  0
    4.8945  -10.4440    1.2114 H   0  0
    6.4350  -11.7961   -0.1709 H   0  0
    6.9683   -8.1920    1.0564 H   0  0
    6.4243  -10.4561   -2.3466 H   0  0
    4.1871   -8.2042   -0.3324 H   0  0
   11.7168   -5.5248   -5.9533 H   0  0
   11.9145   -3.8535   -6.5256 H   0  0
   13.0312   -5.1151   -7.0778 H   0  0
   10.2568    0.2769   -7.1604 H   0  0
    8.6930    0.5824   -6.3283 H   0  0
    8.7199   -0.0768   -7.9761 H   0  0
    7.9903  -12.6260    3.5830 H   0  0
    6.5773  -12.5337    4.6903 H   0  0
    7.5473  -11.0867    4.3492 H   0  0
   10.2795  -10.2533   -1.8531 H   0  0
   10.7689  -11.6973   -0.9008 H   0  0
   10.2781  -10.2028   -0.0782 H   0  0
    5.0528   -6.1789    4.2494 H   0  0
    5.4094   -7.6125    5.2736 H   0  0
    4.0365   -7.6314    4.1485 H   0  0
    8.7147  -11.4908   -7.6575 H   0  0
   10.3614  -12.0147   -7.1623 H   0  0
   10.1515  -10.6755   -8.3082 H   0  0
    1.7187   -8.8228   -4.2275 H   0  0
    1.5115  -10.4183   -5.0292 H   0  0
    3.0767   -9.5828   -5.0825 H   0  0
    9.5642   -4.3350  -11.6059 H   0  0
   11.0258   -4.6766  -10.6602 H   0  0
   10.1950   -3.1196  -10.4777 H   0  0
    7.4533   -4.3368  -10.7212 H   0  0
    7.9858   -2.9982   -9.6858 H   0  0
    7.1473   -4.3906   -8.9744 H   0  0
    5.7816   -6.8901   -6.0717 H   0  0
    5.7394   -5.7496   -7.4299 H   0  0
    5.5575   -5.1566   -5.7677 H   0  0
    6.4958   -2.4862   -0.4851 H   0  0
    7.9560   -3.4370   -0.3492 H   0  0
    7.9598   -2.1262   -2.4567 H   0  0
    6.4333   -2.8930   -2.9595 H   0  0
    3.7834  -10.4024   -0.8381 H   0  0
    4.4291  -11.7624   -1.7931 H   0  0
   13.4881   -7.7246   -5.9574 H   0  0
   12.6244   -9.8388   -7.3123 H   0  0
   14.0447  -10.4998   -5.3159 H   0  0
    9.0351   -6.1686  -11.5959 H   0  0
   14.0363  -10.4147   -8.9492 H   0  0
  1  4  1  0
  1  5  2  0
  2  6  1  0
  2  7  2  0
  3  8  1  0
  3  9  2  0
  4 10  2  0
  5 11  1  0
  6 12  2  0
  7 13  1  0
  8 14  2  0
  9 15  1  0
 10 17  1  0
 11 17  2  0
 12 18  1  0
 13 18  2  0
 14 19  1  0
 15 19  2  0
 16 20  2  0
 16 69  1  0
 17 24  1  0
 18 25  1  0
 19 65  1  0
 20 62  1  0
 20 67  1  0
 21 22  2  0
 21 37  1  0
 21 48  1  0
 22 38  1  0
 22 52  1  0
 23 37  1  0
 23 49  1  0
 23 71  2  0
 24 70  1  0
 24 72  2  0
 25 73  2  0
 25 86  1  0
 26 53  1  0
 26 74  2  0
 26 87  1  0
 27 54  1  0
 27 75  2  0
 27 89  1  0
 28 55  1  0
 28 76  2  0
 28 90  1  0
 29 56  1  0
 29 77  2  0
 29 91  1  0
 30 57  1  0
 30 78  2  0
 30 93  1  0
 31 58  1  0
 31 79  2  0
 31 94  1  0
 32 63  1  0
 32 80  2  0
 32 92  1  0
 33 66  1  0
 33 81  2  0
 33 88  1  0
 34 38  1  0
 34 50  1  0
 35 40  1  0
 35 41  1  0
 36 51  1  0
 36 82  1  0
 37 87  1  0
 38 88  1  0
 39 42  1  0
 39 49  1  0
 39 51  1  0
 40 51  1  0
 40 82  1  0
 41 49  1  0
 41 92  1  0
 42 50  1  0
 42 86  1  0
 43 44  1  0
 43 45  1  0
 43 89  1  0
 44 46  1  0
 44 90  1  0
 45 47  1  0
 45 91  1  0
 46 64  1  0
 46 83  1  0
 47 69  1  0
 47 83  1  0
 48 50  1  0
 48 59  1  0
 48 60  1  0
 49 61  1  0
 50 84  1  0
 51 93  1  0
 62 63  1  0
 64 94  1  0
 65 66  1  0
 65 70  1  0
 66 85  1  0
 67 68  2  0
 68 69  1  0
  1 95  1  0
  2 96  1  0
  3 97  1  0
  4 98  1  0
  5 99  1  0
  6100  1  0
  7101  1  0
  8102  1  0
  9103  1  0
 10104  1  0
 11105  1  0
 12106  1  0
 13107  1  0
 14108  1  0
 15109  1  0
 16110  1  0
 34111  1  0
 34112  1  0
 35113  1  0
 35114  1  0
 36115  1  0
 36116  1  0
 37117  1  0
 38118  1  0
 39119  1  0
 40120  1  0
 41121  1  0
 42122  1  0
 43123  1  0
 44124  1  0
 45125  1  0
 46126  1  0
 47127  1  0
 52128  1  0
 52129  1  0
 52130  1  0
 53131  1  0
 53132  1  0
 53133  1  0
 54134  1  0
 54135  1  0
 54136  1  0
 55137  1  0
 55138  1  0
 55139  1  0
 56140  1  0
 56141  1  0
 56142  1  0
 57143  1  0
 57144  1  0
 57145  1  0
 58146  1  0
 58147  1  0
 58148  1  0
 59149  1  0
 59150  1  0
 59151  1  0
 60152  1  0
 60153  1  0
 60154  1  0
 61155  1  0
 61156  1  0
 61157  1  0
 62158  1  0
 62159  1  0
 63160  1  0
 63161  1  0
 64162  1  0
 64163  1  0
 65164  1  0
 66165  1  0
 70166  1  0
 84167  1  0
 85168  1  0
M  END
> <Name>
BR010237

$$$$
BR010238
  SciTegic05062102053D

168176  0  0  1  0            999 V2000
   10.8381   -9.5528  -10.7345 C   0  0
    0.7200  -18.0135   -2.5249 C   0  0
   11.7952  -16.5070   -5.1482 C   0  0
   10.7738  -10.5787  -11.6773 C   0  0
   10.6005   -9.8275   -9.3876 C   0  0
    0.0307  -16.9927   -1.8703 C   0  0
    1.3909  -17.7480   -3.7187 C   0  0
   11.5547  -15.1338   -5.1913 C   0  0
   11.0583  -17.3700   -5.9594 C   0  0
   10.4717  -11.8792  -11.2735 C   0  0
   10.2985  -11.1280   -8.9838 C   0  0
    0.0122  -15.7064   -2.4096 C   0  0
    1.3723  -16.4617   -4.2579 C   0  0
   10.5772  -14.6234   -6.0455 C   0  0
   10.0808  -16.8596   -6.8137 C   0  0
    5.7629   -7.2920   -0.4823 C   0  0
   10.2341  -12.1538   -9.9267 C   0  0
    0.6830  -15.4409   -3.6034 C   0  0
    9.8402  -15.4863   -6.8567 C   0  0
    5.1529   -6.1924   -1.0317 C   0  0
    3.2518  -10.7945   -7.6815 C   0  0
    4.3830  -11.5211   -7.8879 C   0  0
    2.5250   -9.3146   -5.7619 C   0  0
    9.9124  -13.5390   -9.4967 C   0  0
    0.6632  -14.0717   -4.1773 C   0  0
    3.4000   -7.2151   -7.9034 C   0  0
    8.5821  -10.4137    4.7210 C   0  0
    7.1608  -13.3627    2.7017 C   0  0
    7.7021   -6.5359    2.8445 C   0  0
    5.1094  -14.4715   -3.3679 C   0  0
    2.3208  -12.3223    1.6379 C   0  0
    5.1186   -7.4634   -3.7555 C   0  0
    6.3365  -14.2845   -8.0199 C   0  0
    3.0326  -13.7126   -7.5394 C   0  0
    4.4786  -10.2400   -2.5318 C   0  0
    3.0203  -12.9792   -2.3923 C   0  0
    3.3324   -9.4237   -7.0652 C   0  0  2  0  0  0
    4.3297  -13.0316   -8.0247 C   0  0  2  0  0  0
    3.1030  -11.7494   -4.8308 C   0  0  1  0  0  0
    4.6556  -11.7373   -2.6705 C   0  0  2  0  0  0
    4.1366   -9.6124   -3.8780 C   0  0  1  0  0  0
    1.9040  -12.5408   -5.4775 C   0  0  1  0  0  0
    6.9062   -9.8080    3.1689 C   0  0  2  0  0  0
    6.5910  -11.0891    2.4026 C   0  0  2  0  0  0
    6.6307   -8.5732    2.3082 C   0  0  1  0  0  0
    5.1901  -11.0505    1.7847 C   0  0  1  0  0  0
    5.2380   -8.6399    1.6597 C   0  0  1  0  0  0
    1.8818  -11.4616   -7.9004 C   0  0
    2.8431  -10.2181   -4.5117 C   0  0  1  0  0  0
    1.8974  -12.7707   -7.0484 C   0  0  1  0  0  0
    3.7779  -12.5426   -3.6683 C   0  0  1  0  0  0
    5.7727  -10.9321   -7.8991 C   0  0
    2.8325   -6.3265   -8.9684 C   0  0
   10.0607  -10.3611    4.9599 C   0  0
    7.2532  -14.4421    3.7373 C   0  0
    7.6743   -5.3936    3.8142 C   0  0
    5.1615  -15.8542   -3.9436 C   0  0
    1.0274  -12.1020    0.9136 C   0  0
    1.7352  -11.7537   -9.4296 C   0  0
    0.6060  -10.6286   -7.5944 C   0  0
    1.6362  -10.0237   -3.5532 C   0  0
    5.4998   -5.4490   -2.2864 C   0  0
    4.7776   -6.0108   -3.5126 C   0  0
    4.0459  -11.1908    2.7902 C   0  0
    8.7766  -14.9318   -7.7860 C   0  0  1  0  0  0
    7.3997  -14.8616   -7.1009 C   0  0  1  0  0  0
    4.0987   -5.8124   -0.2483 N   0  0
    4.0335   -6.6485    0.7821 N   0  0
    5.0323   -7.5348    0.6400 N   0  0
    9.1511  -13.6505   -8.3454 N   0  0
    1.6798   -8.4118   -5.6761 O   0  0
   10.3415  -14.4855  -10.1513 O   0  0
   -0.2656  -13.2939   -4.0226 O   0  0
    4.2116   -6.8473   -7.0648 O   0  0
    7.7799  -10.9136    5.4979 O   0  0
    7.4406  -13.5202    1.5210 O   0  0
    8.4972   -6.6299    1.9192 O   0  0
    5.5497  -14.1708   -2.2666 O   0  0
    2.8388  -13.4193    1.7970 O   0  0
    6.2383   -7.8955   -3.9925 O   0  0
    6.3138  -14.4342   -9.2348 O   0  0
    4.0446  -12.4166   -1.5411 O   0  0
    5.0343   -9.8820    0.9771 O   0  0
    0.6579  -13.4647   -7.3230 O   0  0
    7.4718  -14.0386   -5.9438 O   0  0
    1.8029  -13.8417   -4.8711 O   0  0
    2.8772   -8.4752   -8.0170 O   0  0
    5.4112  -13.6068   -7.2806 O   0  0
    8.2912   -9.8268    3.5246 O   0  0
    6.7243  -12.2035    3.2788 O   0  0
    6.7183   -7.4287    3.1578 O   0  0
    3.9755   -8.2071   -3.6684 O   0  0
    4.5068  -13.6558   -4.2626 O   0  0
    2.8213  -11.1272    2.0850 O   0  0
   11.0732   -8.5402  -11.0489 H   0  0
    0.7344  -19.0150   -2.1051 H   0  0
   12.5572  -16.9042   -4.4840 H   0  0
   10.9586  -10.3646  -12.7260 H   0  0
   10.6509   -9.0288   -8.6534 H   0  0
   -0.4918  -17.1997   -0.9409 H   0  0
    1.9278  -18.5427   -4.2282 H   0  0
   12.1291  -14.4616   -4.5606 H   0  0
   11.2460  -18.4391   -5.9269 H   0  0
   10.4242  -12.6710  -12.0166 H   0  0
   10.1150  -11.3304   -7.9317 H   0  0
   -0.5281  -14.9184   -1.8912 H   0  0
    1.8985  -16.2663   -5.1888 H   0  0
   10.3965  -13.5520   -6.0723 H   0  0
    9.5115  -17.5395   -7.4420 H   0  0
    6.6104   -7.8945   -0.7772 H   0  0
    2.6510  -14.3060   -8.3838 H   0  0
    3.2503  -14.4714   -6.7774 H   0  0
    3.7098   -9.9893   -1.7904 H   0  0
    5.3966   -9.7886   -2.1341 H   0  0
    2.0385  -12.5458   -2.2009 H   0  0
    2.9470  -14.0625   -2.2484 H   0  0
    4.3500   -9.1331   -6.7970 H   0  0
    4.5135  -13.2880   -9.0750 H   0  0
    3.9051  -11.7256   -5.5593 H   0  0
    5.7196  -11.9984   -2.7426 H   0  0
    4.9822   -9.7437   -4.5675 H   0  0
    0.9673  -12.0569   -5.1936 H   0  0
    6.3493   -9.7685    4.1124 H   0  0
    7.3383  -11.2114    1.6075 H   0  0
    7.4160   -8.4796    1.5480 H   0  0
    5.1039  -11.9077    1.1010 H   0  0
    4.4287   -8.4580    2.3897 H   0  0
    6.1762  -10.9593   -6.8928 H   0  0
    5.7200   -9.9074   -8.2513 H   0  0
    6.3983  -11.5149   -8.5667 H   0  0
    3.4612   -6.3694   -9.8612 H   0  0
    2.7604   -5.3013   -8.5966 H   0  0
    1.8286   -6.6720   -9.2321 H   0  0
   10.5351  -11.2549    4.5473 H   0  0
   10.2607  -10.2780    6.0311 H   0  0
   10.4779   -9.4824    4.4593 H   0  0
    8.2486  -14.4394    4.1881 H   0  0
    7.0388  -15.4123    3.2820 H   0  0
    6.5145  -14.2557    4.5223 H   0  0
    7.0141   -4.6066    3.4415 H   0  0
    8.6864   -5.0091    3.9636 H   0  0
    7.2901   -5.7442    4.7766 H   0  0
    4.2613  -16.4068   -3.6635 H   0  0
    6.0570  -16.3704   -3.5883 H   0  0
    5.2065  -15.7912   -5.0348 H   0  0
    0.1935  -12.1620    1.6172 H   0  0
    0.9160  -12.8444    0.1193 H   0  0
    1.0304  -11.1062    0.4608 H   0  0
    0.7780  -12.2207   -9.5889 H   0  0
    2.5368  -12.4112   -9.7210 H   0  0
    1.7973  -10.8155   -9.9549 H   0  0
   -0.2597  -11.2407   -7.7996 H   0  0
    0.6084   -9.7541   -8.2281 H   0  0
    0.6267  -10.3408   -6.5537 H   0  0
    1.7990  -10.6241   -2.6700 H   0  0
    0.7382  -10.3404   -4.0633 H   0  0
    1.5712   -8.9777   -3.2907 H   0  0
    5.2542   -4.3851   -2.1679 H   0  0
    6.5854   -5.4820   -2.4496 H   0  0
    5.0585   -5.4404   -4.4058 H   0  0
    3.6926   -5.9332   -3.3750 H   0  0
    4.0906  -10.3790    3.5141 H   0  0
    4.1209  -12.1488    3.3018 H   0  0
    8.7110  -15.5993   -8.6547 H   0  0
    7.0672  -15.8556   -6.7778 H   0  0
    8.8845  -12.8247   -7.8211 H   0  0
    0.6488  -13.6007   -8.2770 H   0  0
    7.7096  -13.1481   -6.2484 H   0  0
  1  4  2  0
  1  5  1  0
  2  6  2  0
  2  7  1  0
  3  8  2  0
  3  9  1  0
  4 10  1  0
  5 11  2  0
  6 12  1  0
  7 13  2  0
  8 14  1  0
  9 15  2  0
 10 17  2  0
 11 17  1  0
 12 18  2  0
 13 18  1  0
 14 19  2  0
 15 19  1  0
 16 20  2  0
 16 69  1  0
 17 24  1  0
 18 25  1  0
 19 65  1  0
 20 62  1  0
 20 67  1  0
 21 22  2  0
 21 37  1  0
 21 48  1  0
 22 38  1  0
 22 52  1  0
 23 37  1  0
 23 49  1  0
 23 71  2  0
 24 70  1  0
 24 72  2  0
 25 73  2  0
 25 86  1  0
 26 53  1  0
 26 74  2  0
 26 87  1  0
 27 54  1  0
 27 75  2  0
 27 89  1  0
 28 55  1  0
 28 76  2  0
 28 90  1  0
 29 56  1  0
 29 77  2  0
 29 91  1  0
 30 57  1  0
 30 78  2  0
 30 93  1  0
 31 58  1  0
 31 79  2  0
 31 94  1  0
 32 63  1  0
 32 80  2  0
 32 92  1  0
 33 66  1  0
 33 81  2  0
 33 88  1  0
 34 38  1  0
 34 50  1  0
 35 40  1  0
 35 41  1  0
 36 51  1  0
 36 82  1  0
 37 87  1  0
 38 88  1  0
 39 42  1  0
 39 49  1  0
 39 51  1  0
 40 51  1  0
 40 82  1  0
 41 49  1  0
 41 92  1  0
 42 50  1  0
 42 86  1  0
 43 44  1  0
 43 45  1  0
 43 89  1  0
 44 46  1  0
 44 90  1  0
 45 47  1  0
 45 91  1  0
 46 64  1  0
 46 83  1  0
 47 69  1  0
 47 83  1  0
 48 50  1  0
 48 59  1  0
 48 60  1  0
 49 61  1  0
 50 84  1  0
 51 93  1  0
 62 63  1  0
 64 94  1  0
 65 66  1  0
 65 70  1  0
 66 85  1  0
 67 68  2  0
 68 69  1  0
  1 95  1  0
  2 96  1  0
  3 97  1  0
  4 98  1  0
  5 99  1  0
  6100  1  0
  7101  1  0
  8102  1  0
  9103  1  0
 10104  1  0
 11105  1  0
 12106  1  0
 13107  1  0
 14108  1  0
 15109  1  0
 16110  1  0
 34111  1  0
 34112  1  0
 35113  1  0
 35114  1  0
 36115  1  0
 36116  1  0
 37117  1  0
 38118  1  0
 39119  1  0
 40120  1  0
 41121  1  0
 42122  1  0
 43123  1  0
 44124  1  0
 45125  1  0
 46126  1  0
 47127  1  0
 52128  1  0
 52129  1  0
 52130  1  0
 53131  1  0
 53132  1  0
 53133  1  0
 54134  1  0
 54135  1  0
 54136  1  0
 55137  1  0
 55138  1  0
 55139  1  0
 56140  1  0
 56141  1  0
 56142  1  0
 57143  1  0
 57144  1  0
 57145  1  0
 58146  1  0
 58147  1  0
 58148  1  0
 59149  1  0
 59150  1  0
 59151  1  0
 60152  1  0
 60153  1  0
 60154  1  0
 61155  1  0
 61156  1  0
 61157  1  0
 62158  1  0
 62159  1  0
 63160  1  0
 63161  1  0
 64162  1  0
 64163  1  0
 65164  1  0
 66165  1  0
 70166  1  0
 84167  1  0
 85168  1  0
M  END
> <Name>
BR010238

$$$$
BR010239
  SciTegic05062102053D

169177  0  0  1  0            999 V2000
   -9.8887   13.7900   -6.0269 C   0  0
    3.0403   10.6820  -14.0603 C   0  0
   -2.8098   18.7698   -8.3880 C   0  0
  -10.3896   14.2958   -7.2264 C   0  0
   -8.5150   13.8007   -5.7849 C   0  0
    3.4845    9.5537  -13.3709 C   0  0
    1.6915   11.0358  -14.0233 C   0  0
   -3.2337   17.7810   -7.5002 C   0  0
   -3.0637   18.6368   -9.7531 C   0  0
   -9.5167   14.8120   -8.1842 C   0  0
   -7.6422   14.3169   -6.7427 C   0  0
    2.5800    8.7792  -12.6446 C   0  0
    0.7870   10.2613  -13.2970 C   0  0
   -3.9115   16.6591   -7.9776 C   0  0
   -3.7414   17.5150  -10.2305 C   0  0
    0.0229    8.6967   -2.5926 C   0  0
   -8.1430   14.8226   -7.9423 C   0  0
    1.2312    9.1329  -12.6076 C   0  0
   -4.1653   16.5262   -9.3427 C   0  0
   -0.6706    7.5462   -2.3123 C   0  0
   -4.6752    8.4143   -9.5388 C   0  0
   -4.9287    9.7496   -9.5930 C   0  0
   -3.2254    7.0347   -7.9903 C   0  0
   -7.2134   15.3724   -8.9624 C   0  0
    0.2684    8.3084  -11.8346 C   0  0
    2.6729   10.3186    0.5544 C   0  0
   -6.0879    6.4662   -6.8757 C   0  0
    5.1129   12.9186   -1.3531 C   0  0
    2.5781   13.4673   -4.8716 C   0  0
   -0.0642   12.1981   -9.5231 C   0  0
    4.5410    8.8571   -7.2377 C   0  0
   -2.7123    8.1562   -4.4325 C   0  0
   -4.6692   12.9321  -10.7219 C   0  0
   -3.5321    9.9207  -11.7766 C   0  0
   -0.5226    9.2748   -6.3220 C   0  0
    0.8931    9.6661   -9.0593 C   0  0
   -4.5875    7.7119   -8.2105 C   0  0  2  0  0  0
   -4.5437   10.5712  -10.8095 C   0  0  2  0  0  0
   -1.7405    8.9411   -9.1259 C   0  0  1  0  0  0
    2.7352   10.2467   -1.9311 C   0  0  1  0  0  0
   -0.2057   10.2769   -7.4119 C   0  0  2  0  0  0
   -1.8554    8.5875   -6.5951 C   0  0  1  0  0  0
   -1.7444    8.3953  -10.6038 C   0  0  1  0  0  0
    3.8540   11.1987   -2.3722 C   0  0  1  0  0  0
    3.6656   11.6519   -3.8201 C   0  0  1  0  0  0
    3.4597   10.4669   -4.7661 C   0  0  1  0  0  0
    2.5455    9.1182   -2.9653 C   0  0  1  0  0  0
   -4.2862    7.6719  -10.8302 C   0  0
   -1.8829    7.8580   -7.9766 C   0  0  1  0  0  0
   -3.0902    8.4681  -11.4429 C   0  0  1  0  0  0
   -0.6096    9.9894   -8.8845 C   0  0  1  0  0  0
   -5.5057   10.5450   -8.4474 C   0  0
    3.0838    9.5750    1.7818 C   0  0
   -7.1908    5.4541   -6.9496 C   0  0
    4.9921   14.1113   -0.4537 C   0  0
    1.3151   14.2739   -4.8515 C   0  0
   -0.1470   13.0172  -10.7755 C   0  0
    4.1800    7.6413   -8.0363 C   0  0
   -5.5362    7.6676  -11.7697 C   0  0
   -3.9385    6.1607  -10.7280 C   0  0
   -0.7536    6.7934   -8.0420 C   0  0
   -2.1438    7.3581   -2.1084 C   0  0
   -2.8760    7.0494   -3.4158 C   0  0
    4.7312    9.6637   -5.0248 C   0  0
   -4.9023   15.3060   -9.8627 C   0  0  1  0  0  0
   -3.9341   14.1646  -10.2234 C   0  0  1  0  0  0
    0.1983    6.4934   -2.2346 N   0  0
    1.4228    6.9573   -2.4590 N   0  0
    1.3155    8.2786   -2.6732 N   0  0
   -5.9292   14.8546   -8.9481 N   0  0
    3.0362    9.6988   -0.6247 N   0  0
   -3.2158    5.8273   -7.7091 O   0  0
   -7.6120   16.2454   -9.7289 O   0  0
    0.4038    7.1072  -11.6606 O   0  0
    2.0681   11.3787    0.6644 O   0  0
   -5.6673    6.9463   -5.8318 O   0  0
    6.1663   12.5328   -1.8417 O   0  0
    3.5064   13.6670   -5.6433 O   0  0
    0.7163   12.4227   -8.6079 O   0  0
    4.8925    9.9207   -7.7299 O   0  0
   -3.0868    9.3114   -4.2848 O   0  0
   -5.7145   12.9578  -11.3588 O   0  0
    1.2041   10.2081   -7.7555 O   0  0
    2.3978    9.6287   -4.2959 O   0  0
   -2.7780    7.8459  -12.7114 O   0  0
   -3.1749   13.7895   -9.0813 O   0  0
   -0.7421    9.0829  -11.3737 O   0  0
   -5.6375    6.7610   -8.1344 O   0  0
   -3.9725   11.8116  -10.3742 O   0  0
    3.8843   12.3505   -1.5316 O   0  0
    2.5161   12.5019   -3.9116 O   0  0
   -2.0823    7.6538   -5.5362 O   0  0
   -0.9795   11.2053   -9.5975 O   0  0
    4.4183    8.5946   -5.8985 O   0  0
  -10.5684   13.3881   -5.2812 H   0  0
    3.7446   11.2850  -14.6258 H   0  0
   -2.2833   19.6439   -8.0160 H   0  0
  -11.4592   14.2872   -7.4147 H   0  0
   -8.1251   13.4072   -4.8508 H   0  0
    4.5347    9.2783  -13.4000 H   0  0
    1.3457   11.9145  -14.5598 H   0  0
   -3.0371   17.8848   -6.4371 H   0  0
   -2.7348   19.4070  -10.4444 H   0  0
   -9.9177   15.2036   -9.1155 H   0  0
   -6.5736   14.3200   -6.5434 H   0  0
    2.9369    7.9020  -12.1110 H   0  0
   -0.2617   10.5464  -13.2753 H   0  0
   -4.2379   15.8936   -7.2785 H   0  0
   -3.9347   17.4199  -11.2957 H   0  0
   -0.2751    9.7257   -2.7360 H   0  0
   -3.9999    9.9217  -12.7725 H   0  0
   -2.6521   10.5619  -11.9120 H   0  0
    0.2738    8.5281   -6.2134 H   0  0
   -0.5573    9.7784   -5.3475 H   0  0
    1.1888    8.6212   -9.1547 H   0  0
    1.3978   10.2351   -9.8474 H   0  0
   -4.7135    8.3850   -7.3603 H   0  0
   -5.4605   10.8328  -11.3515 H   0  0
   -2.6240    9.5574   -9.0065 H   0  0
    1.8047   10.8130   -1.8102 H   0  0
   -0.4719   11.2938   -7.0950 H   0  0
   -2.6644    9.3300   -6.5532 H   0  0
   -1.3936    7.3613  -10.5994 H   0  0
    4.8264   10.7011   -2.2678 H   0  0
    4.5286   12.2619   -4.1387 H   0  0
    3.1123   10.8516   -5.7359 H   0  0
    3.3682    8.3828   -2.9350 H   0  0
   -4.6940   10.9250   -7.8367 H   0  0
   -6.1460    9.8997   -7.8554 H   0  0
   -6.0880   11.3686   -8.8466 H   0  0
    4.0850    9.8685    2.1359 H   0  0
    2.4081    9.7610    2.6321 H   0  0
    3.1230    8.4788    1.6777 H   0  0
   -8.1545    5.9616   -7.0380 H   0  0
   -7.1702    4.8177   -6.0613 H   0  0
   -7.0462    4.8241   -7.8320 H   0  0
    4.8027   15.0075   -1.0497 H   0  0
    5.9056   14.2259    0.1352 H   0  0
    4.1525   13.9648    0.2320 H   0  0
    0.5787   13.8267   -5.5238 H   0  0
    1.5287   15.3049   -5.1446 H   0  0
    0.9040   14.2787   -3.8378 H   0  0
    0.5299   12.6099  -11.5305 H   0  0
    0.1027   14.0581  -10.5551 H   0  0
   -1.1681   12.9800  -11.1662 H   0  0
    5.0702    7.0303   -8.2045 H   0  0
    3.7331    7.9416   -8.9874 H   0  0
    3.4488    7.0466   -7.4810 H   0  0
   -5.2700    7.1493  -12.6754 H   0  0
   -5.8006    8.6910  -11.9763 H   0  0
   -6.3359    7.1599  -11.2572 H   0  0
   -3.6909    5.7991  -11.7150 H   0  0
   -4.7994    5.6371  -10.3394 H   0  0
   -3.0957    6.0478  -10.0622 H   0  0
    0.1992    7.3026   -8.0356 H   0  0
   -0.8702    6.2247   -8.9531 H   0  0
   -0.8408    6.1469   -7.1808 H   0  0
   -2.3187    6.5489   -1.3867 H   0  0
   -2.5730    8.2582   -1.6480 H   0  0
   -3.9474    6.9195   -3.2224 H   0  0
   -2.4848    6.1233   -3.8532 H   0  0
    5.1144    9.2625   -4.0868 H   0  0
    5.4848   10.2998   -5.4885 H   0  0
   -5.4528   15.6068  -10.7631 H   0  0
   -3.2266   14.4767  -11.0012 H   0  0
   -5.6530   14.1794   -8.2441 H   0  0
    3.5375    8.8180   -0.5736 H   0  0
   -3.5952    7.8838  -13.2209 H   0  0
   -3.8064   13.4603   -8.4216 H   0  0
  1  4  2  0
  1  5  1  0
  2  6  2  0
  2  7  1  0
  3  8  2  0
  3  9  1  0
  4 10  1  0
  5 11  2  0
  6 12  1  0
  7 13  2  0
  8 14  1  0
  9 15  2  0
 10 17  2  0
 11 17  1  0
 12 18  2  0
 13 18  1  0
 14 19  2  0
 15 19  1  0
 16 20  2  0
 16 69  1  0
 17 24  1  0
 18 25  1  0
 19 65  1  0
 20 62  1  0
 20 67  1  0
 21 22  2  0
 21 37  1  0
 21 48  1  0
 22 38  1  0
 22 52  1  0
 23 37  1  0
 23 49  1  0
 23 72  2  0
 24 70  1  0
 24 73  2  0
 25 74  2  0
 25 87  1  0
 26 53  1  0
 26 71  1  0
 26 75  2  0
 27 54  1  0
 27 76  2  0
 27 88  1  0
 28 55  1  0
 28 77  2  0
 28 90  1  0
 29 56  1  0
 29 78  2  0
 29 91  1  0
 30 57  1  0
 30 79  2  0
 30 93  1  0
 31 58  1  0
 31 80  2  0
 31 94  1  0
 32 63  1  0
 32 81  2  0
 32 92  1  0
 33 66  1  0
 33 82  2  0
 33 89  1  0
 34 38  1  0
 34 50  1  0
 35 41  1  0
 35 42  1  0
 36 51  1  0
 36 83  1  0
 37 88  1  0
 38 89  1  0
 39 43  1  0
 39 49  1  0
 39 51  1  0
 40 44  1  0
 40 47  1  0
 40 71  1  0
 41 51  1  0
 41 83  1  0
 42 49  1  0
 42 92  1  0
 43 50  1  0
 43 87  1  0
 44 45  1  0
 44 90  1  0
 45 46  1  0
 45 91  1  0
 46 64  1  0
 46 84  1  0
 47 69  1  0
 47 84  1  0
 48 50  1  0
 48 59  1  0
 48 60  1  0
 49 61  1  0
 50 85  1  0
 51 93  1  0
 62 63  1  0
 64 94  1  0
 65 66  1  0
 65 70  1  0
 66 86  1  0
 67 68  2  0
 68 69  1  0
  1 95  1  0
  2 96  1  0
  3 97  1  0
  4 98  1  0
  5 99  1  0
  6100  1  0
  7101  1  0
  8102  1  0
  9103  1  0
 10104  1  0
 11105  1  0
 12106  1  0
 13107  1  0
 14108  1  0
 15109  1  0
 16110  1  0
 34111  1  0
 34112  1  0
 35113  1  0
 35114  1  0
 36115  1  0
 36116  1  0
 37117  1  0
 38118  1  0
 39119  1  0
 40120  1  0
 41121  1  0
 42122  1  0
 43123  1  0
 44124  1  0
 45125  1  0
 46126  1  0
 47127  1  0
 52128  1  0
 52129  1  0
 52130  1  0
 53131  1  0
 53132  1  0
 53133  1  0
 54134  1  0
 54135  1  0
 54136  1  0
 55137  1  0
 55138  1  0
 55139  1  0
 56140  1  0
 56141  1  0
 56142  1  0
 57143  1  0
 57144  1  0
 57145  1  0
 58146  1  0
 58147  1  0
 58148  1  0
 59149  1  0
 59150  1  0
 59151  1  0
 60152  1  0
 60153  1  0
 60154  1  0
 61155  1  0
 61156  1  0
 61157  1  0
 62158  1  0
 62159  1  0
 63160  1  0
 63161  1  0
 64162  1  0
 64163  1  0
 65164  1  0
 66165  1  0
 70166  1  0
 71167  1  0
 85168  1  0
 86169  1  0
M  END
> <Name>
BR010239

$$$$
BR010240
  SciTegic05062102053D

162170  0  0  1  0            999 V2000
   10.8381   -9.5528  -10.7345 C   0  0
    0.7200  -18.0135   -2.5249 C   0  0
   11.7952  -16.5070   -5.1482 C   0  0
   10.7738  -10.5787  -11.6773 C   0  0
   10.6005   -9.8275   -9.3876 C   0  0
    0.0307  -16.9927   -1.8703 C   0  0
    1.3909  -17.7480   -3.7187 C   0  0
   11.5547  -15.1338   -5.1913 C   0  0
   11.0583  -17.3700   -5.9594 C   0  0
   10.4717  -11.8792  -11.2735 C   0  0
   10.2985  -11.1280   -8.9838 C   0  0
    0.0122  -15.7064   -2.4096 C   0  0
    1.3723  -16.4617   -4.2579 C   0  0
   10.5772  -14.6234   -6.0455 C   0  0
   10.0808  -16.8596   -6.8137 C   0  0
    5.7629   -7.2920   -0.4823 C   0  0
   10.2341  -12.1538   -9.9267 C   0  0
    0.6830  -15.4409   -3.6034 C   0  0
    9.8402  -15.4863   -6.8567 C   0  0
    5.1529   -6.1924   -1.0317 C   0  0
    3.2518  -10.7945   -7.6815 C   0  0
    4.3830  -11.5211   -7.8879 C   0  0
    2.5250   -9.3146   -5.7619 C   0  0
    9.9124  -13.5390   -9.4967 C   0  0
    0.6632  -14.0717   -4.1773 C   0  0
    3.4000   -7.2151   -7.9034 C   0  0
    8.5821  -10.4137    4.7210 C   0  0
    7.1608  -13.3627    2.7017 C   0  0
    7.7021   -6.5359    2.8445 C   0  0
    5.1094  -14.4715   -3.3679 C   0  0
    5.1186   -7.4634   -3.7555 C   0  0
    6.3365  -14.2845   -8.0199 C   0  0
    3.0326  -13.7126   -7.5394 C   0  0
    4.4786  -10.2400   -2.5318 C   0  0
    3.0203  -12.9792   -2.3923 C   0  0
    3.3324   -9.4237   -7.0652 C   0  0  2  0  0  0
    4.3297  -13.0316   -8.0247 C   0  0  2  0  0  0
    3.1030  -11.7494   -4.8308 C   0  0  1  0  0  0
    4.6556  -11.7373   -2.6705 C   0  0  2  0  0  0
    4.1366   -9.6124   -3.8780 C   0  0  1  0  0  0
    1.9040  -12.5408   -5.4775 C   0  0  1  0  0  0
    6.9062   -9.8080    3.1689 C   0  0  2  0  0  0
    6.5910  -11.0891    2.4026 C   0  0  2  0  0  0
    6.6307   -8.5732    2.3082 C   0  0  1  0  0  0
    5.1901  -11.0505    1.7847 C   0  0  1  0  0  0
    5.2380   -8.6399    1.6597 C   0  0  1  0  0  0
    1.8818  -11.4616   -7.9004 C   0  0
    2.8431  -10.2181   -4.5117 C   0  0  1  0  0  0
    1.8974  -12.7707   -7.0484 C   0  0  1  0  0  0
    3.7779  -12.5426   -3.6683 C   0  0  1  0  0  0
    5.7727  -10.9321   -7.8991 C   0  0
    2.8325   -6.3265   -8.9684 C   0  0
   10.0607  -10.3611    4.9599 C   0  0
    7.2532  -14.4421    3.7373 C   0  0
    7.6743   -5.3936    3.8142 C   0  0
    5.1615  -15.8542   -3.9436 C   0  0
    4.0459  -11.1908    2.7902 C   0  0
    1.7352  -11.7537   -9.4296 C   0  0
    0.6060  -10.6286   -7.5944 C   0  0
    1.6362  -10.0237   -3.5532 C   0  0
    5.4998   -5.4490   -2.2864 C   0  0
    4.7776   -6.0108   -3.5126 C   0  0
    8.7766  -14.9318   -7.7860 C   0  0  1  0  0  0
    7.3997  -14.8616   -7.1009 C   0  0  1  0  0  0
    4.0987   -5.8124   -0.2483 N   0  0
    4.0335   -6.6485    0.7821 N   0  0
    5.0323   -7.5348    0.6400 N   0  0
    9.1511  -13.6505   -8.3454 N   0  0
    1.6798   -8.4118   -5.6761 O   0  0
   10.3415  -14.4855  -10.1513 O   0  0
   -0.2656  -13.2939   -4.0226 O   0  0
    4.2116   -6.8473   -7.0648 O   0  0
    7.7799  -10.9136    5.4979 O   0  0
    7.4406  -13.5202    1.5210 O   0  0
    8.4972   -6.6299    1.9192 O   0  0
    5.5497  -14.1708   -2.2666 O   0  0
    6.2383   -7.8955   -3.9925 O   0  0
    6.3138  -14.4342   -9.2348 O   0  0
    4.0446  -12.4166   -1.5411 O   0  0
    5.0343   -9.8820    0.9771 O   0  0
    0.6579  -13.4647   -7.3230 O   0  0
    7.4718  -14.0386   -5.9438 O   0  0
    1.8029  -13.8417   -4.8711 O   0  0
    2.8772   -8.4752   -8.0170 O   0  0
    5.4112  -13.6068   -7.2806 O   0  0
    8.2912   -9.8268    3.5246 O   0  0
    6.7243  -12.2035    3.2788 O   0  0
    6.7183   -7.4287    3.1578 O   0  0
    3.9755   -8.2071   -3.6684 O   0  0
    4.5068  -13.6558   -4.2626 O   0  0
   11.0732   -8.5402  -11.0489 H   0  0
    0.7344  -19.0150   -2.1051 H   0  0
   12.5572  -16.9042   -4.4840 H   0  0
   10.9586  -10.3646  -12.7260 H   0  0
   10.6509   -9.0288   -8.6534 H   0  0
   -0.4918  -17.1997   -0.9409 H   0  0
    1.9278  -18.5427   -4.2282 H   0  0
   12.1291  -14.4616   -4.5606 H   0  0
   11.2460  -18.4391   -5.9269 H   0  0
   10.4242  -12.6710  -12.0166 H   0  0
   10.1150  -11.3304   -7.9317 H   0  0
   -0.5281  -14.9184   -1.8912 H   0  0
    1.8985  -16.2663   -5.1888 H   0  0
   10.3965  -13.5520   -6.0723 H   0  0
    9.5115  -17.5395   -7.4420 H   0  0
    6.6104   -7.8945   -0.7772 H   0  0
    2.6510  -14.3060   -8.3838 H   0  0
    3.2503  -14.4714   -6.7774 H   0  0
    3.7098   -9.9893   -1.7904 H   0  0
    5.3966   -9.7886   -2.1341 H   0  0
    2.0385  -12.5458   -2.2009 H   0  0
    2.9470  -14.0625   -2.2484 H   0  0
    4.3500   -9.1331   -6.7970 H   0  0
    4.5135  -13.2880   -9.0750 H   0  0
    3.9051  -11.7256   -5.5593 H   0  0
    5.7196  -11.9984   -2.7426 H   0  0
    4.9822   -9.7437   -4.5675 H   0  0
    0.9673  -12.0569   -5.1936 H   0  0
    6.3493   -9.7685    4.1124 H   0  0
    7.3383  -11.2114    1.6075 H   0  0
    7.4160   -8.4796    1.5480 H   0  0
    5.1039  -11.9077    1.1010 H   0  0
    4.4287   -8.4580    2.3897 H   0  0
    6.1762  -10.9593   -6.8928 H   0  0
    5.7200   -9.9074   -8.2513 H   0  0
    6.3983  -11.5149   -8.5667 H   0  0
    3.4612   -6.3694   -9.8612 H   0  0
    2.7604   -5.3013   -8.5966 H   0  0
    1.8286   -6.6720   -9.2321 H   0  0
   10.5351  -11.2549    4.5473 H   0  0
   10.2607  -10.2780    6.0311 H   0  0
   10.4779   -9.4824    4.4593 H   0  0
    8.2486  -14.4394    4.1881 H   0  0
    7.0388  -15.4123    3.2820 H   0  0
    6.5145  -14.2557    4.5223 H   0  0
    7.0141   -4.6066    3.4415 H   0  0
    8.6864   -5.0091    3.9636 H   0  0
    7.2901   -5.7442    4.7766 H   0  0
    4.2613  -16.4068   -3.6635 H   0  0
    6.0570  -16.3704   -3.5883 H   0  0
    5.2065  -15.7912   -5.0348 H   0  0
    4.0773  -10.3660    3.4990 H   0  0
    4.1448  -12.1307    3.3293 H   0  0
    3.0929  -11.1768    2.2655 H   0  0
    0.7780  -12.2207   -9.5889 H   0  0
    2.5368  -12.4112   -9.7210 H   0  0
    1.7973  -10.8155   -9.9549 H   0  0
   -0.2597  -11.2407   -7.7996 H   0  0
    0.6084   -9.7541   -8.2281 H   0  0
    0.6267  -10.3408   -6.5537 H   0  0
    1.7990  -10.6241   -2.6700 H   0  0
    0.7382  -10.3404   -4.0633 H   0  0
    1.5712   -8.9777   -3.2907 H   0  0
    5.2542   -4.3851   -2.1679 H   0  0
    6.5854   -5.4820   -2.4496 H   0  0
    5.0585   -5.4404   -4.4058 H   0  0
    3.6926   -5.9332   -3.3750 H   0  0
    8.7110  -15.5993   -8.6547 H   0  0
    7.0672  -15.8556   -6.7778 H   0  0
    8.8845  -12.8247   -7.8211 H   0  0
    0.6488  -13.6007   -8.2770 H   0  0
    7.7096  -13.1481   -6.2484 H   0  0
  1  4  2  0
  1  5  1  0
  2  6  2  0
  2  7  1  0
  3  8  2  0
  3  9  1  0
  4 10  1  0
  5 11  2  0
  6 12  1  0
  7 13  2  0
  8 14  1  0
  9 15  2  0
 10 17  2  0
 11 17  1  0
 12 18  2  0
 13 18  1  0
 14 19  2  0
 15 19  1  0
 16 20  2  0
 16 67  1  0
 17 24  1  0
 18 25  1  0
 19 63  1  0
 20 61  1  0
 20 65  1  0
 21 22  2  0
 21 36  1  0
 21 47  1  0
 22 37  1  0
 22 51  1  0
 23 36  1  0
 23 48  1  0
 23 69  2  0
 24 68  1  0
 24 70  2  0
 25 71  2  0
 25 83  1  0
 26 52  1  0
 26 72  2  0
 26 84  1  0
 27 53  1  0
 27 73  2  0
 27 86  1  0
 28 54  1  0
 28 74  2  0
 28 87  1  0
 29 55  1  0
 29 75  2  0
 29 88  1  0
 30 56  1  0
 30 76  2  0
 30 90  1  0
 31 62  1  0
 31 77  2  0
 31 89  1  0
 32 64  1  0
 32 78  2  0
 32 85  1  0
 33 37  1  0
 33 49  1  0
 34 39  1  0
 34 40  1  0
 35 50  1  0
 35 79  1  0
 36 84  1  0
 37 85  1  0
 38 41  1  0
 38 48  1  0
 38 50  1  0
 39 50  1  0
 39 79  1  0
 40 48  1  0
 40 89  1  0
 41 49  1  0
 41 83  1  0
 42 43  1  0
 42 44  1  0
 42 86  1  0
 43 45  1  0
 43 87  1  0
 44 46  1  0
 44 88  1  0
 45 57  1  0
 45 80  1  0
 46 67  1  0
 46 80  1  0
 47 49  1  0
 47 58  1  0
 47 59  1  0
 48 60  1  0
 49 81  1  0
 50 90  1  0
 61 62  1  0
 63 64  1  0
 63 68  1  0
 64 82  1  0
 65 66  2  0
 66 67  1  0
  1 91  1  0
  2 92  1  0
  3 93  1  0
  4 94  1  0
  5 95  1  0
  6 96  1  0
  7 97  1  0
  8 98  1  0
  9 99  1  0
 10100  1  0
 11101  1  0
 12102  1  0
 13103  1  0
 14104  1  0
 15105  1  0
 16106  1  0
 33107  1  0
 33108  1  0
 34109  1  0
 34110  1  0
 35111  1  0
 35112  1  0
 36113  1  0
 37114  1  0
 38115  1  0
 39116  1  0
 40117  1  0
 41118  1  0
 42119  1  0
 43120  1  0
 44121  1  0
 45122  1  0
 46123  1  0
 51124  1  0
 51125  1  0
 51126  1  0
 52127  1  0
 52128  1  0
 52129  1  0
 53130  1  0
 53131  1  0
 53132  1  0
 54133  1  0
 54134  1  0
 54135  1  0
 55136  1  0
 55137  1  0
 55138  1  0
 56139  1  0
 56140  1  0
 56141  1  0
 57142  1  0
 57143  1  0
 57144  1  0
 58145  1  0
 58146  1  0
 58147  1  0
 59148  1  0
 59149  1  0
 59150  1  0
 60151  1  0
 60152  1  0
 60153  1  0
 61154  1  0
 61155  1  0
 62156  1  0
 62157  1  0
 63158  1  0
 64159  1  0
 68160  1  0
 81161  1  0
 82162  1  0
M  END
> <Name>
BR010240

$$$$
BR010241
  SciTegic05062102053D

 57 58  0  0  1  0            999 V2000
   -3.7137    0.1069   -4.3551 C   0  0
   -4.4651   -1.0252   -4.5462 C   0  0
   -7.9341   -1.2218   -6.3331 C   0  0
   -2.3673    2.7233    1.5063 C   0  0
    1.7161    1.2182    1.0648 C   0  0
   -4.7046    1.2927   -0.4429 C   0  0
    2.4897   -2.1810   -1.7404 C   0  0
   -1.3384    1.6626   -0.3375 C   0  0  1  0  0  0
    0.0024    0.9550   -0.5408 C   0  0  1  0  0  0
   -2.4603    0.9571   -1.1020 C   0  0  2  0  0  0
    0.2712    0.7216   -2.0306 C   0  0  1  0  0  0
   -2.0474    0.6854   -2.5533 C   0  0  2  0  0  0
   -2.6144    2.5814    2.9777 C   0  0
    2.7505    2.1847    1.5566 C   0  0
   -5.8244    2.2877   -0.4890 C   0  0
    2.2147   -3.4610   -1.0111 C   0  0
   -5.4264   -1.3276   -5.6145 C   0  0
   -6.8675   -0.8994   -5.2813 C   0  0
    1.5476   -0.0793   -2.2689 C   0  0
   -4.2004   -1.9257   -3.5519 N   0  0
   -3.2997   -1.3837   -2.7395 N   0  0
   -3.0093   -0.1649   -3.2228 N   0  0
   -9.1086   -0.8982   -5.9915 O   0  5
   -7.5326   -1.7610   -7.4004 O   0  0
   -2.7640    3.6646    0.8326 O   0  0
    1.5385    0.1044    1.5393 O   0  0
   -4.7870    0.1924    0.0861 O   0  0
    3.5265   -1.9469   -2.3465 O   0  0
   -0.8033   -0.0140   -2.6175 O   0  0
   -1.6462    1.6555    1.0579 O   0  0
    1.0234    1.7723    0.0261 O   0  0
   -3.6073    1.8058   -1.0724 O   0  0
    1.4201   -1.3330   -1.6232 O   0  0
   -3.6216    1.0363   -4.8992 H   0  0
   -1.2651    2.7167   -0.6332 H   0  0
   -0.0090    0.0046    0.0081 H   0  0
   -2.7235    0.0257   -0.5842 H   0  0
    0.3783    1.6808   -2.5545 H   0  0
   -2.0014    1.6030   -3.1508 H   0  0
   -3.5478    2.0388    3.1464 H   0  0
   -2.6528    3.5689    3.4443 H   0  0
   -1.7952    2.0148    3.4299 H   0  0
    3.6874    2.0327    1.0150 H   0  0
    2.9005    2.0526    2.6311 H   0  0
    2.4059    3.2073    1.3769 H   0  0
   -5.7796    2.9373    0.3886 H   0  0
   -6.7833    1.7652   -0.5334 H   0  0
   -5.7235    2.9059   -1.3858 H   0  0
    2.5560   -3.3790    0.0238 H   0  0
    2.7143   -4.2910   -1.5171 H   0  0
    1.1378   -3.6530   -1.0089 H   0  0
   -5.1314   -0.8421   -6.5670 H   0  0
   -5.4323   -2.4107   -5.8526 H   0  0
   -6.8895    0.1848   -5.1106 H   0  0
   -7.1757   -1.3749   -4.3412 H   0  0
    2.4038    0.4536   -1.8552 H   0  0
    1.6938   -0.2374   -3.3374 H   0  0
  1  2  2  0
  1 22  1  0
  2 17  1  0
  2 20  1  0
  3 18  1  0
  3 23  1  0
  3 24  2  0
  4 13  1  0
  4 25  2  0
  4 30  1  0
  5 14  1  0
  5 26  2  0
  5 31  1  0
  6 15  1  0
  6 27  2  0
  6 32  1  0
  7 16  1  0
  7 28  2  0
  7 33  1  0
  8  9  1  0
  8 10  1  0
  8 30  1  0
  9 11  1  0
  9 31  1  0
 10 12  1  0
 10 32  1  0
 11 19  1  0
 11 29  1  0
 12 22  1  0
 12 29  1  0
 17 18  1  0
 19 33  1  0
 20 21  2  0
 21 22  1  0
  1 34  1  0
  8 35  1  0
  9 36  1  0
 10 37  1  0
 11 38  1  0
 12 39  1  0
 13 40  1  0
 13 41  1  0
 13 42  1  0
 14 43  1  0
 14 44  1  0
 14 45  1  0
 15 46  1  0
 15 47  1  0
 15 48  1  0
 16 49  1  0
 16 50  1  0
 16 51  1  0
 17 52  1  0
 17 53  1  0
 18 54  1  0
 18 55  1  0
 19 56  1  0
 19 57  1  0
M  CHG  1  23  -1
M  END
> <Name>
BR010241

$$$$
BR010242
  SciTegic05062102053D

 57 58  0  0  1  0            999 V2000
    0.9536   -3.0070   -2.3406 C   0  0
    0.2451   -4.1184   -2.7226 C   0  0
    0.6086   -6.0407   -6.1046 C   0  0
    0.6425    3.2922   -0.4684 C   0  0
   -2.5244    1.4783    2.1662 C   0  0
   -1.8399    0.7045   -3.0288 C   0  0
    3.4960    1.6339    2.6451 C   0  0
   -0.5268    1.2523   -0.2363 C   0  0  2  0  0  0
   -0.4218    0.8982    1.2467 C   0  0  2  0  0  0
   -0.7224   -0.0119   -1.0807 C   0  0  2  0  0  0
    0.5588   -0.2527    1.5273 C   0  0  2  0  0  0
    0.3469   -1.0629   -0.7491 C   0  0  2  0  0  0
    1.9467    3.8733   -0.9240 C   0  0
   -3.8322    0.8981    2.6124 C   0  0
   -1.6217    1.0278   -4.4758 C   0  0
    3.5483    2.6678    3.7287 C   0  0
    0.6421   -5.2001   -3.6331 C   0  0
    0.2634   -4.9348   -5.1018 C   0  0
    2.0285    0.1609    1.5222 C   0  0
   -0.9774   -4.1168   -2.1104 N   0  0
   -1.0531   -3.0281   -1.3527 N   0  0
    0.1056   -2.3640   -1.4923 N   0  0
    0.2312   -5.7991   -7.2879 O   0  5
    1.2187   -7.0469   -5.6505 O   0  0
   -0.2831    3.9546   -0.0194 O   0  0
   -2.2512    2.6700    2.2150 O   0  0
   -2.9239    0.7788   -2.4660 O   0  0
    4.4639    1.2865    1.9821 O   0  0
    0.3412   -1.3638    0.6508 O   0  0
    0.6590    1.9365   -0.6330 O   0  0
   -1.7103    0.4821    1.7077 O   0  0
   -0.6587    0.3253   -2.4634 O   0  0
    2.2205    1.1499    2.5165 O   0  0
    1.9389   -2.6357   -2.5848 H   0  0
   -1.3612    1.9438   -0.3876 H   0  0
   -0.1516    1.7928    1.8301 H   0  0
   -1.7345   -0.4118   -0.8941 H   0  0
    0.3554   -0.6218    2.5914 H   0  0
    1.3298   -0.7624   -1.0387 H   0  0
    2.6501    3.9062   -0.0884 H   0  0
    1.7846    4.8745   -1.3312 H   0  0
    2.3696    3.2422   -1.7111 H   0  0
   -4.5348    0.8803    1.7757 H   0  0
   -4.2349    1.4854    3.4415 H   0  0
   -3.6748   -0.1279    2.9575 H   0  0
   -1.3719    2.0859   -4.5859 H   0  0
   -2.5184    0.7815   -5.0502 H   0  0
   -0.7887    0.4312   -4.8590 H   0  0
    3.3521    3.6568    3.3075 H   0  0
    4.5256    2.6438    4.2174 H   0  0
    2.7804    2.4487    4.4764 H   0  0
    1.7348   -5.3833   -3.5840 H   0  0
    0.1912   -6.1661   -3.3273 H   0  0
    0.7596   -4.0159   -5.4402 H   0  0
   -0.8174   -4.7544   -5.1676 H   0  0
    2.2947    0.5713    0.5486 H   0  0
    2.6572   -0.7009    1.7437 H   0  0
  1  2  2  0
  1 22  1  0
  2 17  1  0
  2 20  1  0
  3 18  1  0
  3 23  1  0
  3 24  2  0
  4 13  1  0
  4 25  2  0
  4 30  1  0
  5 14  1  0
  5 26  2  0
  5 31  1  0
  6 15  1  0
  6 27  2  0
  6 32  1  0
  7 16  1  0
  7 28  2  0
  7 33  1  0
  8  9  1  0
  8 10  1  0
  8 30  1  0
  9 11  1  0
  9 31  1  0
 10 12  1  0
 10 32  1  0
 11 19  1  0
 11 29  1  0
 12 22  1  0
 12 29  1  0
 17 18  1  0
 19 33  1  0
 20 21  2  0
 21 22  1  0
  1 34  1  0
  8 35  1  0
  9 36  1  0
 10 37  1  0
 11 38  1  0
 12 39  1  0
 13 40  1  0
 13 41  1  0
 13 42  1  0
 14 43  1  0
 14 44  1  0
 14 45  1  0
 15 46  1  0
 15 47  1  0
 15 48  1  0
 16 49  1  0
 16 50  1  0
 16 51  1  0
 17 52  1  0
 17 53  1  0
 18 54  1  0
 18 55  1  0
 19 56  1  0
 19 57  1  0
M  CHG  1  23  -1
M  END
> <Name>
BR010242

$$$$
BR010243
  SciTegic05062102053D

 58 59  0  0  1  0            999 V2000
    3.0463    2.5517   -0.4483 C   0  0
    4.3999    2.3399   -0.3709 C   0  0
    1.4181   -0.6036   -3.5586 C   0  0
    7.1683    4.3862   -2.2184 C   0  0
   -2.4116    0.1050   -2.3660 C   0  0
   -2.5008   -2.7543    0.3883 C   0  0
    0.2832   -1.8131    4.4136 C   0  0
    0.7954   -0.1702   -1.1907 C   0  0  2  0  0  0
   -0.6437   -0.6654   -1.0004 C   0  0  1  0  0  0
   -0.8608   -1.0548    0.4650 C   0  0  1  0  0  0
   -0.4890    0.1114    1.3918 C   0  0  1  0  0  0
    1.1184    0.9510   -0.1797 C   0  0  2  0  0  0
    1.5866    0.0527   -4.8887 C   0  0
   -3.2912    1.2914   -2.6204 C   0  0
   -3.9599   -3.0136    0.6113 C   0  0
    1.2426   -2.9579    4.5371 C   0  0
    5.4972    3.3028   -0.5304 C   0  0
    5.9948    3.4298   -1.9820 C   0  0
   -0.6039   -0.2632    2.8662 C   0  0
    4.6440    1.0216   -0.1023 N   0  0
    3.4734    0.4002   -0.0101 N   0  0
    2.5167    1.3194   -0.2180 N   0  0
    1.0189    0.2561   -2.5521 N   0  0
    7.5747    4.4166   -3.4162 O   0  5
    1.6319   -1.8050   -3.4462 O   0  0
    7.5897    5.0247   -1.2156 O   0  0
   -2.4804   -0.9453   -2.9898 O   0  0
   -1.6992   -3.6086    0.0350 O   0  0
   -0.3796   -1.3713    5.3424 O   0  0
    0.8684    0.5035    1.1608 O   0  0
   -1.5471    0.3876   -1.3500 O   0  0
   -2.2187   -1.4400    0.6385 O   0  0
    0.2658   -1.3502    3.1242 O   0  0
    2.4426    3.4283   -0.6364 H   0  0
    1.4748   -1.0152   -1.0171 H   0  0
   -0.8634   -1.5082   -1.6659 H   0  0
   -0.2280   -1.9239    0.6857 H   0  0
   -1.1452    0.9736    1.2175 H   0  0
    0.5573    1.8716   -0.3752 H   0  0
    2.6091    0.4329   -5.0435 H   0  0
    1.4039   -0.6403   -5.7256 H   0  0
    0.9257    0.9140   -5.0764 H   0  0
   -4.1904    1.2256   -2.0030 H   0  0
   -3.5538    1.3380   -3.6803 H   0  0
   -2.7525    2.2058   -2.3553 H   0  0
   -4.1302   -3.3057    1.6504 H   0  0
   -4.3063   -3.7946   -0.0704 H   0  0
   -4.5257   -2.0996    0.4088 H   0  0
    0.7237   -3.8994    4.3412 H   0  0
    1.6871   -2.9632    5.5356 H   0  0
    2.0431   -2.8411    3.8009 H   0  0
    5.1993    4.3107   -0.1761 H   0  0
    6.3613    3.0345    0.1107 H   0  0
    5.1646    3.7626   -2.6185 H   0  0
    6.2967    2.4394   -2.3466 H   0  0
   -1.6277   -0.5583    3.0963 H   0  0
   -0.3165    0.5840    3.4890 H   0  0
    0.8758    1.2356   -2.7816 H   0  0
  1  2  2  0
  1 22  1  0
  2 17  1  0
  2 20  1  0
  3 13  1  0
  3 23  1  0
  3 25  2  0
  4 18  1  0
  4 24  1  0
  4 26  2  0
  5 14  1  0
  5 27  2  0
  5 31  1  0
  6 15  1  0
  6 28  2  0
  6 32  1  0
  7 16  1  0
  7 29  2  0
  7 33  1  0
  8  9  1  0
  8 12  1  0
  8 23  1  0
  9 10  1  0
  9 31  1  0
 10 11  1  0
 10 32  1  0
 11 19  1  0
 11 30  1  0
 12 22  1  0
 12 30  1  0
 17 18  1  0
 19 33  1  0
 20 21  2  0
 21 22  1  0
  1 34  1  0
  8 35  1  0
  9 36  1  0
 10 37  1  0
 11 38  1  0
 12 39  1  0
 13 40  1  0
 13 41  1  0
 13 42  1  0
 14 43  1  0
 14 44  1  0
 14 45  1  0
 15 46  1  0
 15 47  1  0
 15 48  1  0
 16 49  1  0
 16 50  1  0
 16 51  1  0
 17 52  1  0
 17 53  1  0
 18 54  1  0
 18 55  1  0
 19 56  1  0
 19 57  1  0
 23 58  1  0
M  CHG  1  24  -1
M  END
> <Name>
BR010243

$$$$
BR010244
  SciTegic05062102053D

 51 52  0  0  1  0            999 V2000
   -1.1961   -1.8132   -3.3345 C   0  0
   -1.1491   -3.1662   -3.5587 C   0  0
   -3.5613   -5.2137   -5.8509 C   0  0
   -1.6248    1.7068    2.8469 C   0  0
    1.8866   -0.0401    2.8536 C   0  0
   -3.3955   -1.0213    0.7313 C   0  0
   -0.7929    0.6870    0.8843 C   0  0  1  0  0  0
    0.7287    0.8020    0.9738 C   0  0  2  0  0  0
   -1.2067   -0.5004    0.0093 C   0  0  2  0  0  0
    1.3312    0.8384   -0.4336 C   0  0  1  0  0  0
   -0.4671   -0.4547   -1.3398 C   0  0  2  0  0  0
   -2.1817    1.4018    4.2044 C   0  0
    2.3526   -1.3118    3.4952 C   0  0
   -4.8409   -0.8488    0.3748 C   0  0
    2.8541    0.8927   -0.4270 C   0  0
   -1.5822   -3.9233   -4.7403 C   0  0
   -3.0508   -4.3808   -4.6705 C   0  0
   -0.6054   -3.7934   -2.4722 N   0  0
   -0.3105   -2.8641   -1.5697 N   0  0
   -0.6656   -1.6776   -2.0886 N   0  0
   -4.7562   -5.6097   -5.7232 O   0  5
   -2.7528   -5.4074   -6.7994 O   0  0
   -1.4652    2.8386    2.4102 O   0  0
    2.0790    1.0739    3.3217 O   0  0
   -3.0011   -1.6213    1.7220 O   0  0
    0.9485   -0.3364   -1.1579 O   0  0
   -1.3330    0.5423    2.1952 O   0  0
    1.2300   -0.3269    1.6927 O   0  0
   -2.6145   -0.4130   -0.2086 O   0  0
   -1.5423   -0.9757   -3.9235 H   0  0
   -1.2076    1.6150    0.4705 H   0  0
    0.9985    1.6963    1.5473 H   0  0
   -1.0120   -1.4394    0.5426 H   0  0
    0.9582    1.7176   -0.9748 H   0  0
   -0.8345    0.3504   -1.9860 H   0  0
   -3.2690    1.3083    4.1468 H   0  0
   -1.8993    2.1900    4.9069 H   0  0
   -1.7687    0.4538    4.5612 H   0  0
    1.5816   -1.6906    4.1706 H   0  0
    3.2856   -1.1343    4.0360 H   0  0
    2.5370   -2.0622    2.7209 H   0  0
   -5.2277    0.0677    0.8273 H   0  0
   -5.4126   -1.7167    0.7130 H   0  0
   -4.9395   -0.7695   -0.7117 H   0  0
    3.2553    0.0301    0.1049 H   0  0
    3.1923    1.8026    0.0685 H   0  0
    3.2315    0.8850   -1.4495 H   0  0
   -1.4472   -3.3294   -5.6672 H   0  0
   -0.9466   -4.8185   -4.8968 H   0  0
   -3.6981   -3.4984   -4.5848 H   0  0
   -3.1998   -4.9734   -3.7586 H   0  0
  1  2  2  0
  1 20  1  0
  2 16  1  0
  2 18  1  0
  3 17  1  0
  3 21  1  0
  3 22  2  0
  4 12  1  0
  4 23  2  0
  4 27  1  0
  5 13  1  0
  5 24  2  0
  5 28  1  0
  6 14  1  0
  6 25  2  0
  6 29  1  0
  7  8  1  0
  7  9  1  0
  7 27  1  0
  8 10  1  0
  8 28  1  0
  9 11  1  0
  9 29  1  0
 10 15  1  0
 10 26  1  0
 11 20  1  0
 11 26  1  0
 16 17  1  0
 18 19  2  0
 19 20  1  0
  1 30  1  0
  7 31  1  0
  8 32  1  0
  9 33  1  0
 10 34  1  0
 11 35  1  0
 12 36  1  0
 12 37  1  0
 12 38  1  0
 13 39  1  0
 13 40  1  0
 13 41  1  0
 14 42  1  0
 14 43  1  0
 14 44  1  0
 15 45  1  0
 15 46  1  0
 15 47  1  0
 16 48  1  0
 16 49  1  0
 17 50  1  0
 17 51  1  0
M  CHG  1  21  -1
M  END
> <Name>
BR010244

$$$$
BR010245
  SciTegic05062102053D

189197  0  0  1  0            999 V2000
    2.8524  -21.0979   -8.0875 C   0  0
    0.7200  -18.0134   -2.5248 C   0  0
    9.6940  -17.7500   -3.3476 C   0  0
    2.7967  -21.0971   -6.6938 C   0  0
    3.5145  -20.0705   -8.7596 C   0  0
    0.6210  -16.9057   -1.6830 C   0  0
    0.8007  -17.8350   -3.9059 C   0  0
    9.3747  -18.4134   -4.5323 C   0  0
    8.9890  -16.6045   -2.9779 C   0  0
    3.4029  -20.0688   -5.9721 C   0  0
    4.1207  -19.0422   -8.0380 C   0  0
    0.6024  -15.6194   -2.2223 C   0  0
    0.7821  -16.5487   -4.4452 C   0  0
    8.3505  -17.9314   -5.3473 C   0  0
    7.9649  -16.1225   -3.7930 C   0  0
    5.8233   -5.5321   -0.2734 C   0  0
    4.0650  -19.0414   -6.6442 C   0  0
    0.6830  -15.4409   -3.6034 C   0  0
    7.6456  -16.7859   -4.9777 C   0  0
    6.3048   -5.8401   -1.5209 C   0  0
    3.2518  -10.7945   -7.6815 C   0  0
    4.3830  -11.5211   -7.8879 C   0  0
    2.5250   -9.3146   -5.7619 C   0  0
    4.7106  -17.9462   -5.8756 C   0  0
    0.6632  -14.0717   -4.1773 C   0  0
    3.4000   -7.2151   -7.9034 C   0  0
    4.1243   -9.5226    4.5723 C   0  0
    3.9417   -5.0424    6.4132 C   0  0
    4.9536   -9.5180    1.3275 C   0  0
    5.1094  -14.4715   -3.3679 C   0  0
    9.5075   -4.3674    4.6530 C   0  0
    5.1186   -7.4634   -3.7555 C   0  0
    5.9475  -14.7444   -7.8100 C   0  0
    3.0326  -13.7126   -7.5394 C   0  0
    4.4786  -10.2400   -2.5318 C   0  0
    3.0203  -12.9792   -2.3923 C   0  0
    3.3324   -9.4237   -7.0652 C   0  0  2  0  0  0
    4.3297  -13.0316   -8.0247 C   0  0  2  0  0  0
    3.1030  -11.7494   -4.8308 C   0  0  1  0  0  0
    4.6556  -11.7373   -2.6705 C   0  0  2  0  0  0
    4.1366   -9.6124   -3.8780 C   0  0  1  0  0  0
    1.9040  -12.5408   -5.4775 C   0  0  1  0  0  0
    5.0880   -7.4431    3.9964 C   0  0  2  0  0  0
    4.8636   -6.0082    4.4637 C   0  0  2  0  0  0
    5.3381   -7.4950    2.4877 C   0  0  1  0  0  0
    5.9734   -5.0724    3.9755 C   0  0  1  0  0  0
    6.4081   -6.4766    2.0604 C   0  0  1  0  0  0
    1.8818  -11.4616   -7.9004 C   0  0
    2.8431  -10.2181   -4.5117 C   0  0  1  0  0  0
    1.8974  -12.7707   -7.0484 C   0  0  1  0  0  0
    3.7779  -12.5426   -3.6683 C   0  0  1  0  0  0
    5.7727  -10.9321   -7.8991 C   0  0
    2.8325   -6.3265   -8.9684 C   0  0
    2.8148  -10.1879    4.8699 C   0  0
    3.9493   -5.1379    7.9089 C   0  0
    5.5294  -10.8799    1.0830 C   0  0
    4.5520  -15.8530   -3.5320 C   0  0
   10.3728   -3.3515    3.9709 C   0  0
    1.7352  -11.7537   -9.4296 C   0  0
    0.6060  -10.6286   -7.5944 C   0  0
    1.6362  -10.0237   -3.5532 C   0  0
   10.3662  -17.1577   -9.8970 C   0  0
   10.4532  -13.9108   -6.1527 C   0  0
    9.3584  -13.2966  -10.9135 C   0  0
    5.9296   -5.2540   -2.8487 C   0  0
    4.7776   -6.0108   -3.5126 C   0  0
    7.3170   -5.2532    4.6840 C   0  0
   10.6571  -15.9547   -9.0093 C   0  0
    9.7591  -13.5003   -7.4448 C   0  0
    8.4281  -14.1919  -10.1055 C   0  0
    6.5315  -16.2609   -5.8640 C   0  0  1  0  0  0
    7.0557  -15.2546   -6.9047 C   0  0  1  0  0  0
    7.2499   -6.8229   -1.4188 N   0  0
    7.3721   -7.1399   -0.1345 N   0  0
    6.5158   -6.3650    0.5506 N   0  0
    5.7837  -17.3276   -6.4947 N   0  0
    1.6798   -8.4118   -5.6761 O   0  0
    4.2868  -17.6675   -4.7570 O   0  0
   -0.2656  -13.2939   -4.0226 O   0  0
    4.2116   -6.8473   -7.0648 O   0  0
    5.2034  -10.0994    4.5805 O   0  0
    3.2784   -4.2309    5.7819 O   0  0
    3.9076   -9.1177    0.8348 O   0  0
    5.9667  -14.1715   -2.5481 O   0  0
    9.8943   -5.1070    5.5477 O   0  0
    6.2383   -7.8955   -3.9925 O   0  0
    5.5858  -15.2949   -8.8421 O   0  0
    4.0446  -12.4166   -1.5411 O   0  0
    6.1151   -5.1659    2.5567 O   0  0
    0.6579  -13.4647   -7.3230 O   0  0
    1.8029  -13.8417   -4.8711 O   0  0
    2.8772   -8.4752   -8.0170 O   0  0
    5.4112  -13.6068   -7.2806 O   0  0
    3.9149   -8.2027    4.2992 O   0  0
    4.7758   -5.9870    5.8847 O   0  0
    5.7699   -8.8183    2.1686 O   0  0
    3.9755   -8.2071   -3.6684 O   0  0
    4.5068  -13.6558   -4.2626 O   0  0
    8.2418   -4.3386    4.1278 O   0  0
    8.0421  -15.8691   -7.7238 O   0  0
    9.1604  -14.9148   -8.5309 Si  0  0
    2.3803  -21.8985   -8.6493 H   0  0
    0.7345  -19.0149   -2.1049 H   0  0
   10.4906  -18.1262   -2.7124 H   0  0
    2.2810  -21.8971   -6.1706 H   0  0
    3.5581  -20.0712   -9.8448 H   0  0
    0.5580  -17.0449   -0.6077 H   0  0
    0.8781  -18.6975   -4.5613 H   0  0
    9.9228  -19.3060   -4.8197 H   0  0
    9.2366  -16.0883   -2.0551 H   0  0
    3.3534  -20.0781   -4.8863 H   0  0
    4.6338  -18.2467   -8.5723 H   0  0
    0.5249  -14.7632   -1.5571 H   0  0
    0.8454  -16.4216   -5.5228 H   0  0
    8.1088  -18.4547   -6.2687 H   0  0
    7.4211  -15.2292   -3.4970 H   0  0
    5.0857   -4.8272    0.0834 H   0  0
    2.6510  -14.3060   -8.3838 H   0  0
    3.2503  -14.4714   -6.7774 H   0  0
    3.7098   -9.9893   -1.7904 H   0  0
    5.3966   -9.7886   -2.1341 H   0  0
    2.0385  -12.5458   -2.2009 H   0  0
    2.9470  -14.0625   -2.2484 H   0  0
    4.3500   -9.1331   -6.7970 H   0  0
    4.5135  -13.2880   -9.0750 H   0  0
    3.9051  -11.7256   -5.5593 H   0  0
    5.7196  -11.9984   -2.7426 H   0  0
    4.9822   -9.7437   -4.5675 H   0  0
    0.9673  -12.0569   -5.1936 H   0  0
    5.9077   -7.9129    4.5526 H   0  0
    3.8965   -5.6632    4.0745 H   0  0
    4.3933   -7.3204    1.9582 H   0  0
    5.6541   -4.0405    4.1830 H   0  0
    7.4248   -6.7894    2.3594 H   0  0
    6.1762  -10.9593   -6.8928 H   0  0
    5.7200   -9.9074   -8.2513 H   0  0
    6.3983  -11.5149   -8.5667 H   0  0
    3.4612   -6.3694   -9.8612 H   0  0
    2.7604   -5.3013   -8.5966 H   0  0
    1.8286   -6.6720   -9.2321 H   0  0
    2.6032  -10.1281    5.9404 H   0  0
    2.8447  -11.2296    4.5405 H   0  0
    2.0157   -9.6746    4.3274 H   0  0
    3.1708   -5.8295    8.2403 H   0  0
    3.7961   -4.1474    8.3446 H   0  0
    4.9190   -5.5184    8.2430 H   0  0
    6.1921  -10.8519    0.2146 H   0  0
    4.7229  -11.6014    0.9295 H   0  0
    6.1114  -11.1896    1.9559 H   0  0
    3.6811  -15.9809   -2.8844 H   0  0
    5.3203  -16.5935   -3.2955 H   0  0
    4.2385  -15.9966   -4.5701 H   0  0
   10.8606   -3.8025    3.1032 H   0  0
   11.1157   -2.9655    4.6734 H   0  0
    9.7525   -2.5183    3.6282 H   0  0
    0.7780  -12.2207   -9.5889 H   0  0
    2.5368  -12.4112   -9.7210 H   0  0
    1.7973  -10.8155   -9.9549 H   0  0
   -0.2597  -11.2407   -7.7996 H   0  0
    0.6084   -9.7541   -8.2281 H   0  0
    0.6267  -10.3408   -6.5537 H   0  0
    1.7990  -10.6241   -2.6700 H   0  0
    0.7382  -10.3404   -4.0633 H   0  0
    1.5712   -8.9777   -3.2907 H   0  0
    9.6437  -17.8202   -9.4093 H   0  0
    9.9444  -16.8510  -10.8606 H   0  0
   11.2746  -17.7377  -10.0948 H   0  0
    9.7865  -14.5345   -5.5482 H   0  0
   11.3632  -14.4873   -6.3533 H   0  0
   10.7319  -13.0369   -5.5533 H   0  0
    9.7086  -12.4625  -10.2966 H   0  0
   10.2379  -13.8474  -11.2651 H   0  0
    8.8497  -12.8775  -11.7888 H   0  0
    5.6553   -4.1978   -2.7245 H   0  0
    6.8032   -5.2527   -3.5144 H   0  0
    4.5356   -5.5511   -4.4781 H   0  0
    3.8875   -5.9713   -2.8736 H   0  0
    7.6774   -6.2696    4.5353 H   0  0
    7.2023   -5.0520    5.7477 H   0  0
   11.3813  -15.3101   -9.5205 H   0  0
   11.1449  -16.3065   -8.0930 H   0  0
   10.4471  -12.8785   -8.0288 H   0  0
    8.9014  -12.8657   -7.1941 H   0  0
    8.0935  -15.0163  -10.7455 H   0  0
    7.5324  -13.6179   -9.8423 H   0  0
    5.7991  -15.7598   -5.2184 H   0  0
    7.5233  -14.3898   -6.4186 H   0  0
    6.1180  -17.6533   -7.3946 H   0  0
    0.6488  -13.6007   -8.2770 H   0  0
  1  4  2  0
  1  5  1  0
  2  6  2  0
  2  7  1  0
  3  8  2  0
  3  9  1  0
  4 10  1  0
  5 11  2  0
  6 12  1  0
  7 13  2  0
  8 14  1  0
  9 15  2  0
 10 17  2  0
 11 17  1  0
 12 18  2  0
 13 18  1  0
 14 19  2  0
 15 19  1  0
 16 20  2  0
 16 75  1  0
 17 24  1  0
 18 25  1  0
 19 71  1  0
 20 65  1  0
 20 73  1  0
 21 22  2  0
 21 37  1  0
 21 48  1  0
 22 38  1  0
 22 52  1  0
 23 37  1  0
 23 49  1  0
 23 77  2  0
 24 76  1  0
 24 78  2  0
 25 79  2  0
 25 91  1  0
 26 53  1  0
 26 80  2  0
 26 92  1  0
 27 54  1  0
 27 81  2  0
 27 94  1  0
 28 55  1  0
 28 82  2  0
 28 95  1  0
 29 56  1  0
 29 83  2  0
 29 96  1  0
 30 57  1  0
 30 84  2  0
 30 98  1  0
 31 58  1  0
 31 85  2  0
 31 99  1  0
 32 66  1  0
 32 86  2  0
 32 97  1  0
 33 72  1  0
 33 87  2  0
 33 93  1  0
 34 38  1  0
 34 50  1  0
 35 40  1  0
 35 41  1  0
 36 51  1  0
 36 88  1  0
 37 92  1  0
 38 93  1  0
 39 42  1  0
 39 49  1  0
 39 51  1  0
 40 51  1  0
 40 88  1  0
 41 49  1  0
 41 97  1  0
 42 50  1  0
 42 91  1  0
 43 44  1  0
 43 45  1  0
 43 94  1  0
 44 46  1  0
 44 95  1  0
 45 47  1  0
 45 96  1  0
 46 67  1  0
 46 89  1  0
 47 75  1  0
 47 89  1  0
 48 50  1  0
 48 59  1  0
 48 60  1  0
 49 61  1  0
 50 90  1  0
 51 98  1  0
 62 68  1  0
 63 69  1  0
 64 70  1  0
 65 66  1  0
 67 99  1  0
 68101  1  0
 69101  1  0
 70101  1  0
 71 72  1  0
 71 76  1  0
 72100  1  0
 73 74  2  0
 74 75  1  0
100101  1  0
  1102  1  0
  2103  1  0
  3104  1  0
  4105  1  0
  5106  1  0
  6107  1  0
  7108  1  0
  8109  1  0
  9110  1  0
 10111  1  0
 11112  1  0
 12113  1  0
 13114  1  0
 14115  1  0
 15116  1  0
 16117  1  0
 34118  1  0
 34119  1  0
 35120  1  0
 35121  1  0
 36122  1  0
 36123  1  0
 37124  1  0
 38125  1  0
 39126  1  0
 40127  1  0
 41128  1  0
 42129  1  0
 43130  1  0
 44131  1  0
 45132  1  0
 46133  1  0
 47134  1  0
 52135  1  0
 52136  1  0
 52137  1  0
 53138  1  0
 53139  1  0
 53140  1  0
 54141  1  0
 54142  1  0
 54143  1  0
 55144  1  0
 55145  1  0
 55146  1  0
 56147  1  0
 56148  1  0
 56149  1  0
 57150  1  0
 57151  1  0
 57152  1  0
 58153  1  0
 58154  1  0
 58155  1  0
 59156  1  0
 59157  1  0
 59158  1  0
 60159  1  0
 60160  1  0
 60161  1  0
 61162  1  0
 61163  1  0
 61164  1  0
 62165  1  0
 62166  1  0
 62167  1  0
 63168  1  0
 63169  1  0
 63170  1  0
 64171  1  0
 64172  1  0
 64173  1  0
 65174  1  0
 65175  1  0
 66176  1  0
 66177  1  0
 67178  1  0
 67179  1  0
 68180  1  0
 68181  1  0
 69182  1  0
 69183  1  0
 70184  1  0
 70185  1  0
 71186  1  0
 72187  1  0
 76188  1  0
 90189  1  0
M  END
> <Name>
BR010245

$$$$
BR010246
  SciTegic05062102053D

189197  0  0  1  0            999 V2000
   12.5203  -12.8092  -13.7993 C   0  0
    6.7771  -12.9417  -10.3351 C   0  0
   14.0059  -13.5797   -4.9856 C   0  0
   11.6427  -13.5521  -13.0098 C   0  0
   13.1608  -11.6903  -13.2667 C   0  0
    5.5998  -12.3482   -9.8800 C   0  0
    7.9328  -12.1748  -10.4832 C   0  0
   14.6444  -13.4449   -6.2184 C   0  0
   12.9553  -12.7268   -4.6472 C   0  0
   11.4055  -13.1762  -11.6876 C   0  0
   12.9235  -11.3144  -11.9446 C   0  0
    5.5780  -10.9877   -9.5732 C   0  0
    7.9111  -10.8143  -10.1764 C   0  0
   14.2323  -12.4570   -7.1128 C   0  0
   12.5433  -11.7389   -5.5417 C   0  0
    6.6189   -5.8804   -0.6054 C   0  0
   12.0459  -12.0573  -11.1550 C   0  0
    6.7337  -10.2207   -9.7213 C   0  0
   13.1818  -11.6040   -6.7745 C   0  0
    6.2029   -4.5835   -0.7733 C   0  0
    9.9300   -4.5391   -8.1975 C   0  0
   11.0981   -5.1944   -7.9606 C   0  0
    7.8481   -4.2415   -6.7903 C   0  0
   11.7931  -11.6569   -9.7469 C   0  0
    6.7105   -8.7725   -9.3948 C   0  0
    9.2547   -1.4717   -6.4602 C   0  0
    6.2635  -11.6817    2.7595 C   0  0
    8.6712  -11.3083   -0.9300 C   0  0
    5.9411   -7.8217    3.2179 C   0  0
    9.6991  -10.1850   -6.2872 C   0  0
    4.1127  -10.7900   -4.0261 C   0  0
    8.1361   -4.1638   -3.0366 C   0  0
   13.0666   -8.1369   -8.5177 C   0  0
   10.4291   -7.0046   -9.6994 C   0  0
    7.6316   -7.0343   -4.0959 C   0  0
    7.1469   -9.1705   -6.2985 C   0  0
    9.2692   -3.7460   -7.1021 C   0  0  2  0  0  0
   11.5282   -6.3659   -8.8242 C   0  0  2  0  0  0
    8.3545   -6.8471   -7.0789 C   0  0  1  0  0  0
    8.2340   -8.2272   -4.8077 C   0  0  2  0  0  0
    8.0176   -5.7381   -4.7987 C   0  0  1  0  0  0
    8.0365   -6.9811   -8.6162 C   0  0  1  0  0  0
    5.9169  -10.0839    1.0537 C   0  0  2  0  0  0
    6.5021  -10.7038   -0.2131 C   0  0  1  0  0  0
    5.9289   -8.5562    0.9719 C   0  0  1  0  0  0
    5.8292  -10.1537   -1.4730 C   0  0  1  0  0  0
    5.2841   -8.0775   -0.3401 C   0  0  1  0  0  0
    9.1940   -4.7759   -9.5288 C   0  0
    7.5724   -5.7113   -6.2962 C   0  0  1  0  0  0
    9.0320   -6.3236   -9.6637 C   0  0  1  0  0  0
    8.3736   -8.2299   -6.3552 C   0  0  1  0  0  0
   12.0070   -4.9011   -6.7917 C   0  0
    9.2341   -0.0779   -7.0106 C   0  0
    7.1517  -12.0121    3.9205 C   0  0
   10.0943  -10.8387   -0.9491 C   0  0
    5.0586   -7.2706    4.2966 C   0  0
    9.7301  -11.1617   -7.4235 C   0  0
    3.5056  -10.0610   -5.1864 C   0  0
   10.0744   -4.1722  -10.6715 C   0  0
    7.8292   -4.0650   -9.7459 C   0  0
    6.0331   -5.8921   -6.4001 C   0  0
   18.2878   -9.6534   -8.1394 C   0  0
   15.2751   -8.9921   -4.2593 C   0  0
   17.1398   -5.7563   -7.4675 C   0  0
    7.0266   -3.3404   -0.9265 C   0  0
    7.3583   -3.0404   -2.3896 C   0  0
    4.4118  -10.6782   -1.6848 C   0  0
   17.6670   -9.1764   -6.8329 C   0  0
   15.4174   -7.8542   -5.2616 C   0  0
   16.1807   -6.8000   -8.0248 C   0  0
   12.7332  -10.5290   -7.7469 C   0  0  1  0  0  0
   13.4955   -9.2090   -7.5305 C   0  0  1  0  0  0
    4.8365   -4.5380   -0.7916 N   0  0
    4.3847   -5.7779   -0.6379 N   0  0
    5.4550   -6.5812   -0.5263 N   0  0
   12.8185  -10.9654   -9.1242 N   0  0
    6.9237   -3.4164   -6.8293 O   0  0
   10.7298  -11.9677   -9.2164 O   0  0
    5.7136   -8.0762   -9.5082 O   0  0
    9.2730   -1.7364   -5.2658 O   0  0
    5.3150  -12.3687    2.4051 O   0  0
    8.2925  -12.3672   -1.4122 O   0  0
    7.1366   -8.0422    3.3567 O   0  0
    9.7807  -10.5025   -5.1084 O   0  0
    4.7168  -11.8496   -4.1229 O   0  0
    9.2380   -4.5566   -2.6791 O   0  0
   13.5523   -7.9845   -9.6312 O   0  0
    7.2687   -9.3113   -4.8647 O   0  0
    5.8596   -8.7206   -1.4823 O   0  0
    8.4354   -6.5717  -10.9583 O   0  0
    7.9312   -8.3726   -8.9666 O   0  0
    9.2505   -2.3799   -7.4845 O   0  0
   12.0502   -7.4011   -7.9816 O   0  0
    6.6786  -10.5177    2.1785 O   0  0
    7.8945  -10.3806   -0.3023 O   0  0
    5.2073   -8.0299    2.0861 O   0  0
    7.4084   -4.6620   -4.0805 O   0  0
    9.5686   -8.9384   -6.7953 O   0  0
    3.8888  -10.0975   -2.8652 O   0  0
   14.8921   -9.4198   -7.6925 O   0  0
   15.9782   -8.3549   -6.9860 Si  0  0
   12.7050  -13.1019  -14.8287 H   0  0
    6.7940  -14.0010  -10.5740 H   0  0
   14.3260  -14.3498   -4.2898 H   0  0
   11.1440  -14.4231  -13.4247 H   0  0
   13.8444  -11.1120  -13.8814 H   0  0
    4.7000  -12.9454   -9.7649 H   0  0
    8.8496  -12.6370  -10.8372 H   0  0
   15.4617  -14.1096   -6.4825 H   0  0
   12.4573  -12.8322   -3.6880 H   0  0
   10.7196  -13.7623  -11.0813 H   0  0
   13.4281  -10.4406  -11.5401 H   0  0
    4.6551  -10.5353   -9.2193 H   0  0
    8.8176  -10.2264  -10.2957 H   0  0
   14.7358  -12.3592   -8.0710 H   0  0
   11.7240  -11.0788   -5.2695 H   0  0
    7.5932   -6.3439   -0.5398 H   0  0
   10.7985   -6.9861  -10.7358 H   0  0
   10.3327   -8.0765   -9.4863 H   0  0
    6.5400   -7.1149   -4.0218 H   0  0
    7.9732   -7.0074   -3.0532 H   0  0
    6.1764   -8.7720   -6.5945 H   0  0
    7.2838  -10.1361   -6.7970 H   0  0
    9.8053   -3.7971   -6.1524 H   0  0
   12.3628   -6.0388   -9.4559 H   0  0
    9.3930   -6.5507   -6.9882 H   0  0
    9.1510   -8.5591   -4.3033 H   0  0
    9.1056   -5.5976   -4.7341 H   0  0
    7.0319   -6.5971   -8.8039 H   0  0
    4.8945  -10.4440    1.2114 H   0  0
    6.4350  -11.7961   -0.1709 H   0  0
    6.9683   -8.1920    1.0564 H   0  0
    6.4243  -10.4561   -2.3466 H   0  0
    4.1871   -8.2042   -0.3324 H   0  0
   11.7168   -5.5248   -5.9533 H   0  0
   11.9145   -3.8535   -6.5256 H   0  0
   13.0312   -5.1151   -7.0778 H   0  0
   10.2568    0.2769   -7.1604 H   0  0
    8.6930    0.5824   -6.3283 H   0  0
    8.7199   -0.0768   -7.9761 H   0  0
    7.9903  -12.6260    3.5830 H   0  0
    6.5773  -12.5337    4.6903 H   0  0
    7.5473  -11.0867    4.3492 H   0  0
   10.2795  -10.2533   -1.8531 H   0  0
   10.7689  -11.6973   -0.9008 H   0  0
   10.2781  -10.2028   -0.0782 H   0  0
    5.0528   -6.1789    4.2494 H   0  0
    5.4094   -7.6125    5.2736 H   0  0
    4.0365   -7.6314    4.1485 H   0  0
    8.7147  -11.4908   -7.6575 H   0  0
   10.3614  -12.0147   -7.1623 H   0  0
   10.1515  -10.6755   -8.3082 H   0  0
    2.4758  -10.3946   -5.3361 H   0  0
    4.1015  -10.2340   -6.0860 H   0  0
    3.4973   -8.9876   -4.9760 H   0  0
    9.5642   -4.3350  -11.6059 H   0  0
   11.0258   -4.6766  -10.6602 H   0  0
   10.1950   -3.1196  -10.4777 H   0  0
    7.4533   -4.3368  -10.7212 H   0  0
    7.9858   -2.9982   -9.6858 H   0  0
    7.1473   -4.3906   -8.9744 H   0  0
    5.7816   -6.8901   -6.0717 H   0  0
    5.7394   -5.7496   -7.4299 H   0  0
    5.5575   -5.1566   -5.7677 H   0  0
   17.6181  -10.3613   -8.6387 H   0  0
   18.4666   -8.8182   -8.8256 H   0  0
   19.2442  -10.1595   -7.9665 H   0  0
   14.5678   -9.7389   -4.6348 H   0  0
   16.2334   -9.4940   -4.0852 H   0  0
   14.9024   -8.6309   -3.2943 H   0  0
   16.8212   -5.4478   -6.4665 H   0  0
   18.1590   -6.1510   -7.3895 H   0  0
   17.1709   -4.8628   -8.1011 H   0  0
    6.4958   -2.4862   -0.4851 H   0  0
    7.9560   -3.4370   -0.3492 H   0  0
    7.9598   -2.1262   -2.4567 H   0  0
    6.4333   -2.8930   -2.9595 H   0  0
    3.7834  -10.4024   -0.8381 H   0  0
    4.4291  -11.7624   -1.7931 H   0  0
   18.3566   -8.4709   -6.3554 H   0  0
   17.5783  -10.0331   -6.1551 H   0  0
   16.1292   -7.1230   -4.8614 H   0  0
   14.4538   -7.3387   -5.3440 H   0  0
   16.5225   -7.0902   -9.0249 H   0  0
   15.1962   -6.3360   -8.1540 H   0  0
   11.6622  -10.3555   -7.5821 H   0  0
   13.3363   -8.8216   -6.5169 H   0  0
   13.6950  -10.7986   -9.6056 H   0  0
    9.0351   -6.1686  -11.5959 H   0  0
  1  4  2  0
  1  5  1  0
  2  6  2  0
  2  7  1  0
  3  8  2  0
  3  9  1  0
  4 10  1  0
  5 11  2  0
  6 12  1  0
  7 13  2  0
  8 14  1  0
  9 15  2  0
 10 17  2  0
 11 17  1  0
 12 18  2  0
 13 18  1  0
 14 19  2  0
 15 19  1  0
 16 20  2  0
 16 75  1  0
 17 24  1  0
 18 25  1  0
 19 71  1  0
 20 65  1  0
 20 73  1  0
 21 22  2  0
 21 37  1  0
 21 48  1  0
 22 38  1  0
 22 52  1  0
 23 37  1  0
 23 49  1  0
 23 77  2  0
 24 76  1  0
 24 78  2  0
 25 79  2  0
 25 91  1  0
 26 53  1  0
 26 80  2  0
 26 92  1  0
 27 54  1  0
 27 81  2  0
 27 94  1  0
 28 55  1  0
 28 82  2  0
 28 95  1  0
 29 56  1  0
 29 83  2  0
 29 96  1  0
 30 57  1  0
 30 84  2  0
 30 98  1  0
 31 58  1  0
 31 85  2  0
 31 99  1  0
 32 66  1  0
 32 86  2  0
 32 97  1  0
 33 72  1  0
 33 87  2  0
 33 93  1  0
 34 38  1  0
 34 50  1  0
 35 40  1  0
 35 41  1  0
 36 51  1  0
 36 88  1  0
 37 92  1  0
 38 93  1  0
 39 42  1  0
 39 49  1  0
 39 51  1  0
 40 51  1  0
 40 88  1  0
 41 49  1  0
 41 97  1  0
 42 50  1  0
 42 91  1  0
 43 44  1  0
 43 45  1  0
 43 94  1  0
 44 46  1  0
 44 95  1  0
 45 47  1  0
 45 96  1  0
 46 67  1  0
 46 89  1  0
 47 75  1  0
 47 89  1  0
 48 50  1  0
 48 59  1  0
 48 60  1  0
 49 61  1  0
 50 90  1  0
 51 98  1  0
 62 68  1  0
 63 69  1  0
 64 70  1  0
 65 66  1  0
 67 99  1  0
 68101  1  0
 69101  1  0
 70101  1  0
 71 72  1  0
 71 76  1  0
 72100  1  0
 73 74  2  0
 74 75  1  0
100101  1  0
  1102  1  0
  2103  1  0
  3104  1  0
  4105  1  0
  5106  1  0
  6107  1  0
  7108  1  0
  8109  1  0
  9110  1  0
 10111  1  0
 11112  1  0
 12113  1  0
 13114  1  0
 14115  1  0
 15116  1  0
 16117  1  0
 34118  1  0
 34119  1  0
 35120  1  0
 35121  1  0
 36122  1  0
 36123  1  0
 37124  1  0
 38125  1  0
 39126  1  0
 40127  1  0
 41128  1  0
 42129  1  0
 43130  1  0
 44131  1  0
 45132  1  0
 46133  1  0
 47134  1  0
 52135  1  0
 52136  1  0
 52137  1  0
 53138  1  0
 53139  1  0
 53140  1  0
 54141  1  0
 54142  1  0
 54143  1  0
 55144  1  0
 55145  1  0
 55146  1  0
 56147  1  0
 56148  1  0
 56149  1  0
 57150  1  0
 57151  1  0
 57152  1  0
 58153  1  0
 58154  1  0
 58155  1  0
 59156  1  0
 59157  1  0
 59158  1  0
 60159  1  0
 60160  1  0
 60161  1  0
 61162  1  0
 61163  1  0
 61164  1  0
 62165  1  0
 62166  1  0
 62167  1  0
 63168  1  0
 63169  1  0
 63170  1  0
 64171  1  0
 64172  1  0
 64173  1  0
 65174  1  0
 65175  1  0
 66176  1  0
 66177  1  0
 67178  1  0
 67179  1  0
 68180  1  0
 68181  1  0
 69182  1  0
 69183  1  0
 70184  1  0
 70185  1  0
 71186  1  0
 72187  1  0
 76188  1  0
 90189  1  0
M  END
> <Name>
BR010246

$$$$
BR010247
  SciTegic05062102053D

183191  0  0  1  0            999 V2000
    4.5704   -8.5947    0.6079 C   0  0
    0.0000    0.0000    0.0000 C   0  0
   13.2628   -5.2403    2.0225 C   0  0
    4.3831   -7.5884   -0.3381 C   0  0
    5.5630   -8.4629    1.5778 C   0  0
    0.8317    0.2415    1.0923 C   0  0
    0.5103    0.0804   -1.2943 C   0  0
   12.8746   -5.7311    0.7788 C   0  0
   12.3957   -4.4277    2.7478 C   0  0
    5.1902   -6.4500   -0.3191 C   0  0
    6.3754   -7.3277    1.6019 C   0  0
    2.1751    0.5653    0.8942 C   0  0
    1.8522    0.4038   -1.4987 C   0  0
   11.6181   -5.4113    0.2599 C   0  0
   11.1396   -4.1069    2.2295 C   0  0
    9.8440    9.9076   -1.6806 C   0  0
    6.1965   -6.3209    0.6460 C   0  0
    2.6894    0.6513   -0.4056 C   0  0
   10.7289   -4.5968    0.9786 C   0  0
    8.7307   10.0970   -2.4685 C   0  0
    8.8873    2.0205    0.4422 C   0  0
    8.8827    1.1160   -0.5816 C   0  0
    8.2085    4.0548   -0.8414 C   0  0
    7.0325   -5.0947    0.6366 C   0  0
    4.1053    0.9960   -0.6732 C   0  0
   11.0957    4.8975    0.0252 C   0  0
   16.3235    7.7041   -1.8539 C   0  0
   14.2021    8.6310    1.7901 C   0  0
   12.2102    7.6838   -4.1103 C   0  0
    4.8299    4.0920    3.6949 C   0  0
    6.1987    7.5162   -1.8444 C   0  0
    8.3972   -2.4491   -1.1592 C   0  0
    7.0253   -0.2522    0.6682 C   0  0
    5.8773    6.5333    1.0036 C   0  0
    3.4941    4.2777    0.2878 C   0  0
    9.1613    3.4999    0.2492 C   0  0  2  0  0  0
    8.0104   -0.1511   -0.5256 C   0  0  2  0  0  0
    6.0610    3.6123    0.6602 C   0  0  1  0  0  0
    4.6322    5.7050    1.2439 C   0  0  2  0  0  0
    6.8618    5.9639   -0.0255 C   0  0  1  0  0  0
    6.0106    2.0657    0.4047 C   0  0  1  0  0  0
   14.3999    9.1349   -1.7935 C   0  0  2  0  0  0
   14.4552    9.6866   -0.3626 C   0  0  1  0  0  0
   12.9467    9.0697   -2.2852 C   0  0  1  0  0  0
   13.7146   11.0251   -0.2476 C   0  0  1  0  0  0
   12.2846   10.4449   -2.1094 C   0  0  1  0  0  0
    8.2869    1.5934    1.7884 C   0  0
    6.7145    4.4728   -0.4933 C   0  0  1  0  0  0
    6.8413    1.1127    1.3914 C   0  0  2  0  0  0
    4.7187    4.1614    1.2336 C   0  0  1  0  0  0
    9.5190    1.3211   -1.9330 C   0  0
   12.5334    4.8462   -0.3941 C   0  0
   16.7225    6.2609   -1.8854 C   0  0
   13.4003    7.5802    2.4953 C   0  0
   12.3144    7.5502   -5.5984 C   0  0
    4.4815    3.1555    4.8137 C   0  0
   14.4678   12.1884   -0.8873 C   0  0
    8.3311    2.5839    2.9948 C   0  0
    9.1861    0.4443    2.3771 C   0  0
    5.9422    4.3475   -1.8254 C   0  0
   10.7418   -6.4819   -5.1493 C   0  0
    7.0055   -5.8215   -4.0131 C   0  0
    9.1678   -1.8886   -5.0552 C   0  0
    7.3119    9.7629   -2.1838 C   0  0
    6.8481    8.4605   -2.8290 C   0  0
   10.9931   -5.4678   -4.0430 C   0  0
    8.0099   -4.8794   -4.6642 C   0  0
    9.9795   -2.5716   -3.9667 C   0  0
    9.3619   -4.2023    0.4373 C   0  0  1  0  0  0
    9.4099   -3.5695   -0.9762 C   0  0  1  0  0  0
    9.1077   10.7005   -3.6420 N   0  0
   10.4234   10.8746   -3.6140 N   0  0
   10.8658   10.3992   -2.4356 N   0  0
    8.3969   -5.3022    0.4999 N   0  0
    8.6627    4.2650   -1.9739 O   0  0
    6.4901   -3.9966    0.7245 O   0  0
    4.6569    0.7871   -1.7410 O   0  0
   10.5319    5.9115    0.4123 O   0  0
   17.1222    8.6309   -1.8775 O   0  0
   15.0734    9.3008    2.3273 O   0  0
   11.5567    6.9298   -3.4031 O   0  0
    5.3086    5.2026    3.8712 O   0  0
    4.9879    7.3841   -1.7399 O   0  0
    7.3489   -2.5594   -1.7810 O   0  0
    3.7175    5.6998    0.1213 O   0  0
   12.3843   10.9215   -0.7679 O   0  0
    6.0873    0.8943    2.5834 O   0  0
    4.6354    1.5894    0.4236 O   0  0
   10.5443    3.6572   -0.1016 O   0  0
    8.8489   -1.3254   -0.5315 O   0  0
   14.9640    7.8044   -1.8241 O   0  0
   13.7878    8.7246    0.4962 O   0  0
   12.9447    8.7548   -3.6974 O   0  0
    7.1573    6.8840   -1.1173 O   0  0
    4.5235    3.4900    2.5115 O   0  0
    9.1004   -4.5738   -1.9437 O   0  0
    9.4901   -4.3778   -3.5633 Si  0  0
    3.9409   -9.4796    0.5917 H   0  0
   -1.0446   -0.2517    0.1577 H   0  0
   14.2405   -5.4885    2.4246 H   0  0
    3.6080   -7.6905   -1.0921 H   0  0
    5.7029   -9.2444    2.3193 H   0  0
    0.4340    0.1757    2.1010 H   0  0
   -0.1374   -0.1074   -2.1458 H   0  0
   13.5511   -6.3614    0.2086 H   0  0
   12.6970   -4.0404    3.7167 H   0  0
    5.0295   -5.6809   -1.0701 H   0  0
    7.1270   -7.2461    2.3820 H   0  0
    2.7975    0.7394    1.7672 H   0  0
    2.2264    0.4678   -2.5161 H   0  0
   11.3503   -5.8024   -0.7173 H   0  0
   10.4824   -3.4650    2.8113 H   0  0
    9.9864    9.4787   -0.6986 H   0  0
    6.0616   -0.6378    0.3135 H   0  0
    7.3387   -1.0285    1.3786 H   0  0
    5.6071    7.5709    0.7786 H   0  0
    6.4083    6.5859    1.9651 H   0  0
    2.5060    4.0828    0.7133 H   0  0
    3.5440    3.7445   -0.6623 H   0  0
    8.9869    4.0801    1.1561 H   0  0
    7.3841   -0.1322   -1.4276 H   0  0
    6.7558    3.7743    1.4647 H   0  0
    4.1180    6.1254    2.1176 H   0  0
    7.8111    6.0058    0.5255 H   0  0
    6.3944    1.9133   -0.6047 H   0  0
   14.9748    9.7683   -2.4815 H   0  0
   15.4989    9.7841   -0.0418 H   0  0
   12.3918    8.3037   -1.7275 H   0  0
   13.5856   11.2657    0.8142 H   0  0
   12.7242   11.1827   -2.7922 H   0  0
   10.1068    0.4388   -2.2052 H   0  0
   10.2109    2.1632   -1.9694 H   0  0
    8.7512    1.4721   -2.6984 H   0  0
   13.0816    4.1501    0.2457 H   0  0
   12.6026    4.5429   -1.4418 H   0  0
   12.9778    5.8400   -0.2886 H   0  0
   17.7805    6.1722   -1.6229 H   0  0
   16.5653    5.8596   -2.8888 H   0  0
   16.1457    5.6949   -1.1489 H   0  0
   12.3998    7.9619    2.7109 H   0  0
   13.8982    7.3159    3.4324 H   0  0
   13.3404    6.6786    1.8796 H   0  0
   11.7150    6.6965   -5.9280 H   0  0
   13.3551    7.3766   -5.8832 H   0  0
   11.9276    8.4523   -6.0792 H   0  0
    5.0657    2.2362    4.7231 H   0  0
    3.4111    2.9354    4.7936 H   0  0
    4.7214    3.6279    5.7706 H   0  0
   14.6491   12.0326   -1.9546 H   0  0
   13.8836   13.1108   -0.7996 H   0  0
   15.4350   12.3409   -0.3983 H   0  0
    8.0286    2.0772    3.9208 H   0  0
    7.7004    3.4647    2.9425 H   0  0
    9.3533    2.9504    3.1565 H   0  0
    8.6856   -0.0452    3.2205 H   0  0
    9.4655   -0.3350    1.6671 H   0  0
   10.1402    0.8444    2.7453 H   0  0
    5.8103    3.3047   -2.1255 H   0  0
    4.9621    4.8172   -1.8024 H   0  0
    6.4736    4.8257   -2.6521 H   0  0
    9.9324   -7.1707   -4.8896 H   0  0
   10.4768   -5.9910   -6.0912 H   0  0
   11.6448   -7.0755   -5.3257 H   0  0
    6.5544   -5.3824   -3.1184 H   0  0
    7.4772   -6.7663   -3.7216 H   0  0
    6.1986   -6.0531   -4.7160 H   0  0
    8.0979   -1.9053   -4.8296 H   0  0
    9.4756   -0.8425   -5.1534 H   0  0
    9.3189   -2.3696   -6.0266 H   0  0
    6.6876   10.5830   -2.5589 H   0  0
    7.1551    9.7194   -1.0990 H   0  0
    6.1223    8.6679   -3.6246 H   0  0
    7.6838    7.9346   -3.3062 H   0  0
   11.8077   -4.7996   -4.3442 H   0  0
   11.3221   -5.9937   -3.1398 H   0  0
    8.4060   -5.3650   -5.5623 H   0  0
    7.5011   -3.9655   -4.9900 H   0  0
    9.8982   -1.9904   -3.0413 H   0  0
   11.0371   -2.5685   -4.2539 H   0  0
    8.9648   -3.4362    1.1164 H   0  0
   10.4052   -3.1422   -1.1613 H   0  0
    8.7416   -6.2443    0.3487 H   0  0
    5.2129    0.5586    2.3229 H   0  0
  1  4  2  0
  1  5  1  0
  2  6  2  0
  2  7  1  0
  3  8  2  0
  3  9  1  0
  4 10  1  0
  5 11  2  0
  6 12  1  0
  7 13  2  0
  8 14  1  0
  9 15  2  0
 10 17  2  0
 11 17  1  0
 12 18  2  0
 13 18  1  0
 14 19  2  0
 15 19  1  0
 16 20  2  0
 16 73  1  0
 17 24  1  0
 18 25  1  0
 19 69  1  0
 20 64  1  0
 20 71  1  0
 21 22  2  0
 21 36  1  0
 21 47  1  0
 22 37  1  0
 22 51  1  0
 23 36  1  0
 23 48  1  0
 23 75  2  0
 24 74  1  0
 24 76  2  0
 25 77  2  0
 25 88  1  0
 26 52  1  0
 26 78  2  0
 26 89  1  0
 27 53  1  0
 27 79  2  0
 27 91  1  0
 28 54  1  0
 28 80  2  0
 28 92  1  0
 29 55  1  0
 29 81  2  0
 29 93  1  0
 30 56  1  0
 30 82  2  0
 30 95  1  0
 31 65  1  0
 31 83  2  0
 31 94  1  0
 32 70  1  0
 32 84  2  0
 32 90  1  0
 33 37  1  0
 33 49  1  0
 34 39  1  0
 34 40  1  0
 35 50  1  0
 35 85  1  0
 36 89  1  0
 37 90  1  0
 38 41  1  0
 38 48  1  0
 38 50  1  0
 39 50  1  0
 39 85  1  0
 40 48  1  0
 40 94  1  0
 41 49  1  0
 41 88  1  0
 42 43  1  0
 42 44  1  0
 42 91  1  0
 43 45  1  0
 43 92  1  0
 44 46  1  0
 44 93  1  0
 45 57  1  0
 45 86  1  0
 46 73  1  0
 46 86  1  0
 47 49  1  0
 47 58  1  0
 47 59  1  0
 48 60  1  0
 49 87  1  0
 50 95  1  0
 61 66  1  0
 62 67  1  0
 63 68  1  0
 64 65  1  0
 66 97  1  0
 67 97  1  0
 68 97  1  0
 69 70  1  0
 69 74  1  0
 70 96  1  0
 71 72  2  0
 72 73  1  0
 96 97  1  0
  1 98  1  0
  2 99  1  0
  3100  1  0
  4101  1  0
  5102  1  0
  6103  1  0
  7104  1  0
  8105  1  0
  9106  1  0
 10107  1  0
 11108  1  0
 12109  1  0
 13110  1  0
 14111  1  0
 15112  1  0
 16113  1  0
 33114  1  0
 33115  1  0
 34116  1  0
 34117  1  0
 35118  1  0
 35119  1  0
 36120  1  0
 37121  1  0
 38122  1  0
 39123  1  0
 40124  1  0
 41125  1  0
 42126  1  0
 43127  1  0
 44128  1  0
 45129  1  0
 46130  1  0
 51131  1  0
 51132  1  0
 51133  1  0
 52134  1  0
 52135  1  0
 52136  1  0
 53137  1  0
 53138  1  0
 53139  1  0
 54140  1  0
 54141  1  0
 54142  1  0
 55143  1  0
 55144  1  0
 55145  1  0
 56146  1  0
 56147  1  0
 56148  1  0
 57149  1  0
 57150  1  0
 57151  1  0
 58152  1  0
 58153  1  0
 58154  1  0
 59155  1  0
 59156  1  0
 59157  1  0
 60158  1  0
 60159  1  0
 60160  1  0
 61161  1  0
 61162  1  0
 61163  1  0
 62164  1  0
 62165  1  0
 62166  1  0
 63167  1  0
 63168  1  0
 63169  1  0
 64170  1  0
 64171  1  0
 65172  1  0
 65173  1  0
 66174  1  0
 66175  1  0
 67176  1  0
 67177  1  0
 68178  1  0
 68179  1  0
 69180  1  0
 70181  1  0
 74182  1  0
 87183  1  0
M  END
> <Name>
BR010247

$$$$
BR010248
  SciTegic05062102053D

190198  0  0  1  0            999 V2000
   -5.3240   15.6022  -17.2385 C   0  0
    3.0403   10.6820  -14.0603 C   0  0
   -0.9332   18.2531   -9.8780 C   0  0
   -3.9393   15.7653  -17.2772 C   0  0
   -5.9432   15.1730  -16.0646 C   0  0
    3.4845    9.5537  -13.3709 C   0  0
    1.6915   11.0358  -14.0233 C   0  0
   -2.1456   18.3686  -10.5578 C   0  0
   -0.3775   16.9937   -9.6522 C   0  0
   -3.1737   15.4989  -16.1420 C   0  0
   -5.1777   14.9066  -14.9294 C   0  0
    2.5800    8.7792  -12.6446 C   0  0
    0.7870   10.2613  -13.2970 C   0  0
   -2.8026   17.2249  -11.0116 C   0  0
   -1.0344   15.8500  -10.1060 C   0  0
    0.0229    8.6967   -2.5926 C   0  0
   -3.7929   15.0696  -14.9681 C   0  0
    1.2312    9.1329  -12.6076 C   0  0
   -2.2469   15.9655  -10.7857 C   0  0
   -0.6706    7.5462   -2.3123 C   0  0
   -4.6752    8.4143   -9.5388 C   0  0
   -4.9287    9.7496   -9.5930 C   0  0
   -3.2254    7.0347   -7.9903 C   0  0
   -2.9774   14.7859  -13.7591 C   0  0
    0.2684    8.3084  -11.8346 C   0  0
    2.6729   10.3186    0.5544 C   0  0
   -6.0879    6.4662   -6.8757 C   0  0
    5.1129   12.9186   -1.3531 C   0  0
    2.5781   13.4673   -4.8716 C   0  0
   -0.0642   12.1981   -9.5231 C   0  0
    4.5410    8.8571   -7.2377 C   0  0
   -2.7123    8.1562   -4.4325 C   0  0
   -4.6692   12.9321  -10.7219 C   0  0
   -3.5321    9.9207  -11.7766 C   0  0
   -0.5226    9.2748   -6.3220 C   0  0
    0.8931    9.6661   -9.0593 C   0  0
   -4.5875    7.7119   -8.2105 C   0  0  2  0  0  0
   -4.5437   10.5712  -10.8095 C   0  0  2  0  0  0
   -1.7405    8.9411   -9.1259 C   0  0  1  0  0  0
    2.7352   10.2467   -1.9311 C   0  0  1  0  0  0
   -0.2057   10.2769   -7.4119 C   0  0  2  0  0  0
   -1.8554    8.5875   -6.5951 C   0  0  1  0  0  0
   -1.7444    8.3953  -10.6038 C   0  0  1  0  0  0
    3.8540   11.1987   -2.3722 C   0  0  1  0  0  0
    3.6656   11.6519   -3.8201 C   0  0  1  0  0  0
    3.4597   10.4669   -4.7661 C   0  0  1  0  0  0
    2.5455    9.1182   -2.9653 C   0  0  1  0  0  0
   -4.2862    7.6719  -10.8302 C   0  0
   -1.8829    7.8580   -7.9766 C   0  0  1  0  0  0
   -3.0902    8.4681  -11.4429 C   0  0  1  0  0  0
   -0.6096    9.9894   -8.8845 C   0  0  1  0  0  0
   -5.5057   10.5450   -8.4474 C   0  0
    3.0838    9.5750    1.7818 C   0  0
   -7.1908    5.4541   -6.9496 C   0  0
    4.9921   14.1113   -0.4537 C   0  0
    1.3151   14.2739   -4.8515 C   0  0
    0.3895   12.5328  -10.9117 C   0  0
    4.1800    7.6413   -8.0363 C   0  0
   -5.5362    7.6676  -11.7697 C   0  0
   -3.9385    6.1607  -10.7280 C   0  0
   -0.7536    6.7934   -8.0420 C   0  0
   -7.4162   17.3111   -8.9947 C   0  0
   -3.3728   15.4884   -6.7814 C   0  0
   -7.9137   13.6341   -7.2088 C   0  0
   -2.1438    7.3581   -2.1084 C   0  0
   -2.8760    7.0494   -3.4158 C   0  0
    4.7312    9.6637   -5.0248 C   0  0
   -6.4373   16.7327   -7.9811 C   0  0
   -4.5411   14.5447   -7.0352 C   0  0
   -7.1202   13.8096   -8.4970 C   0  0
   -2.9611   14.7209  -11.2789 C   0  0  1  0  0  0
   -3.9341   14.1646  -10.2234 C   0  0  1  0  0  0
    0.1983    6.4934   -2.2346 N   0  0
    1.4228    6.9573   -2.4590 N   0  0
    1.3155    8.2786   -2.6732 N   0  0
   -3.6272   14.9365  -12.5457 N   0  0
    3.0362    9.6988   -0.6247 N   0  0
   -3.2158    5.8273   -7.7091 O   0  0
   -1.8000   14.4625  -13.8919 O   0  0
    0.4038    7.1072  -11.6606 O   0  0
    2.0681   11.3787    0.6644 O   0  0
   -5.6673    6.9463   -5.8318 O   0  0
    6.1663   12.5328   -1.8417 O   0  0
    3.5064   13.6670   -5.6433 O   0  0
    0.3493   12.7539   -8.5145 O   0  0
    4.8925    9.9207   -7.7299 O   0  0
   -3.0868    9.3114   -4.2848 O   0  0
   -5.7145   12.9578  -11.3588 O   0  0
    1.2041   10.2081   -7.7555 O   0  0
    2.3978    9.6287   -4.2959 O   0  0
   -2.7780    7.8459  -12.7114 O   0  0
   -0.7421    9.0829  -11.3737 O   0  0
   -5.6375    6.7610   -8.1344 O   0  0
   -3.9725   11.8116  -10.3742 O   0  0
    3.8843   12.3505   -1.5316 O   0  0
    2.5161   12.5019   -3.9116 O   0  0
   -2.0823    7.6538   -5.5362 O   0  0
   -0.9795   11.2053   -9.5975 O   0  0
    4.4183    8.5946   -5.8985 O   0  0
   -4.9049   15.1478   -9.8884 O   0  0
   -5.7093   15.0512   -8.4199 Si  0  0
   -5.9201   15.8096  -18.1223 H   0  0
    3.7446   11.2850  -14.6258 H   0  0
   -0.4211   19.1438   -9.5259 H   0  0
   -3.4573   16.0993  -18.1913 H   0  0
   -7.0215   15.0463  -16.0343 H   0  0
    4.5347    9.2783  -13.4000 H   0  0
    1.3457   11.9145  -14.5598 H   0  0
   -2.5779   19.3492  -10.7347 H   0  0
    0.5671   16.9034   -9.1239 H   0  0
   -2.0953   15.6293  -16.1832 H   0  0
   -5.6709   14.5725  -14.0202 H   0  0
    2.9369    7.9020  -12.1110 H   0  0
   -0.2617   10.5464  -13.2753 H   0  0
   -3.7470   17.3245  -11.5402 H   0  0
   -0.5940   14.8729   -9.9253 H   0  0
   -0.2751    9.7257   -2.7360 H   0  0
   -3.9999    9.9217  -12.7725 H   0  0
   -2.6521   10.5619  -11.9120 H   0  0
    0.2738    8.5281   -6.2134 H   0  0
   -0.5573    9.7784   -5.3475 H   0  0
    1.1888    8.6212   -9.1547 H   0  0
    1.3978   10.2351   -9.8474 H   0  0
   -4.7135    8.3850   -7.3603 H   0  0
   -5.4605   10.8328  -11.3515 H   0  0
   -2.6240    9.5574   -9.0065 H   0  0
    1.8047   10.8130   -1.8102 H   0  0
   -0.4719   11.2938   -7.0950 H   0  0
   -2.6644    9.3300   -6.5532 H   0  0
   -1.3936    7.3613  -10.5994 H   0  0
    4.8264   10.7011   -2.2678 H   0  0
    4.5286   12.2619   -4.1387 H   0  0
    3.1123   10.8516   -5.7359 H   0  0
    3.3682    8.3828   -2.9350 H   0  0
   -4.6940   10.9250   -7.8367 H   0  0
   -6.1460    9.8997   -7.8554 H   0  0
   -6.0880   11.3686   -8.8466 H   0  0
    4.0850    9.8685    2.1359 H   0  0
    2.4081    9.7610    2.6321 H   0  0
    3.1230    8.4788    1.6777 H   0  0
   -8.1545    5.9616   -7.0380 H   0  0
   -7.1702    4.8177   -6.0613 H   0  0
   -7.0462    4.8241   -7.8320 H   0  0
    4.8027   15.0075   -1.0497 H   0  0
    5.9056   14.2259    0.1352 H   0  0
    4.1525   13.9648    0.2320 H   0  0
    0.5787   13.8267   -5.5238 H   0  0
    1.5287   15.3049   -5.1446 H   0  0
    0.9040   14.2787   -3.8378 H   0  0
    1.2523   11.9175  -11.1784 H   0  0
    0.6392   13.5950  -10.9744 H   0  0
   -0.4195   12.3237  -11.6178 H   0  0
    5.0702    7.0303   -8.2045 H   0  0
    3.7331    7.9416   -8.9874 H   0  0
    3.4488    7.0466   -7.4810 H   0  0
   -5.2700    7.1493  -12.6754 H   0  0
   -5.8006    8.6910  -11.9763 H   0  0
   -6.3359    7.1599  -11.2572 H   0  0
   -3.6909    5.7991  -11.7150 H   0  0
   -4.7994    5.6371  -10.3394 H   0  0
   -3.0957    6.0478  -10.0622 H   0  0
    0.1992    7.3026   -8.0356 H   0  0
   -0.8702    6.2247   -8.9531 H   0  0
   -0.8408    6.1469   -7.1808 H   0  0
   -6.9348   17.4028   -9.9738 H   0  0
   -8.2966   16.6694   -9.1114 H   0  0
   -7.7610   18.3069   -8.6945 H   0  0
   -2.7771   15.6045   -7.6927 H   0  0
   -3.7202   16.4822   -6.4777 H   0  0
   -2.7132   15.1058   -5.9946 H   0  0
   -7.2479   13.3302   -6.3944 H   0  0
   -8.4049   14.5673   -6.9114 H   0  0
   -8.6865   12.8648   -7.3167 H   0  0
   -2.3187    6.5489   -1.3867 H   0  0
   -2.5730    8.2582   -1.6480 H   0  0
   -3.9474    6.9195   -3.2224 H   0  0
   -2.4848    6.1233   -3.8532 H   0  0
    5.1144    9.2625   -4.0868 H   0  0
    5.4848   10.2998   -5.4885 H   0  0
   -6.9440   16.6520   -7.0126 H   0  0
   -5.6149   17.4442   -7.8446 H   0  0
   -5.1189   14.4470   -6.1090 H   0  0
   -4.1430   13.5489   -7.2611 H   0  0
   -7.8094   14.1131   -9.2933 H   0  0
   -6.7125   12.8359   -8.7915 H   0  0
   -2.1984   13.9628  -11.4980 H   0  0
   -3.4057   13.8957   -9.3007 H   0  0
   -4.5847   15.2679  -12.5108 H   0  0
    3.5375    8.8180   -0.5736 H   0  0
   -3.5952    7.8838  -13.2209 H   0  0
  1  4  2  0
  1  5  1  0
  2  6  2  0
  2  7  1  0
  3  8  2  0
  3  9  1  0
  4 10  1  0
  5 11  2  0
  6 12  1  0
  7 13  2  0
  8 14  1  0
  9 15  2  0
 10 17  2  0
 11 17  1  0
 12 18  2  0
 13 18  1  0
 14 19  2  0
 15 19  1  0
 16 20  2  0
 16 75  1  0
 17 24  1  0
 18 25  1  0
 19 71  1  0
 20 65  1  0
 20 73  1  0
 21 22  2  0
 21 37  1  0
 21 48  1  0
 22 38  1  0
 22 52  1  0
 23 37  1  0
 23 49  1  0
 23 78  2  0
 24 76  1  0
 24 79  2  0
 25 80  2  0
 25 92  1  0
 26 53  1  0
 26 77  1  0
 26 81  2  0
 27 54  1  0
 27 82  2  0
 27 93  1  0
 28 55  1  0
 28 83  2  0
 28 95  1  0
 29 56  1  0
 29 84  2  0
 29 96  1  0
 30 57  1  0
 30 85  2  0
 30 98  1  0
 31 58  1  0
 31 86  2  0
 31 99  1  0
 32 66  1  0
 32 87  2  0
 32 97  1  0
 33 72  1  0
 33 88  2  0
 33 94  1  0
 34 38  1  0
 34 50  1  0
 35 41  1  0
 35 42  1  0
 36 51  1  0
 36 89  1  0
 37 93  1  0
 38 94  1  0
 39 43  1  0
 39 49  1  0
 39 51  1  0
 40 44  1  0
 40 47  1  0
 40 77  1  0
 41 51  1  0
 41 89  1  0
 42 49  1  0
 42 97  1  0
 43 50  1  0
 43 92  1  0
 44 45  1  0
 44 95  1  0
 45 46  1  0
 45 96  1  0
 46 67  1  0
 46 90  1  0
 47 75  1  0
 47 90  1  0
 48 50  1  0
 48 59  1  0
 48 60  1  0
 49 61  1  0
 50 91  1  0
 51 98  1  0
 62 68  1  0
 63 69  1  0
 64 70  1  0
 65 66  1  0
 67 99  1  0
 68101  1  0
 69101  1  0
 70101  1  0
 71 72  1  0
 71 76  1  0
 72100  1  0
 73 74  2  0
 74 75  1  0
100101  1  0
  1102  1  0
  2103  1  0
  3104  1  0
  4105  1  0
  5106  1  0
  6107  1  0
  7108  1  0
  8109  1  0
  9110  1  0
 10111  1  0
 11112  1  0
 12113  1  0
 13114  1  0
 14115  1  0
 15116  1  0
 16117  1  0
 34118  1  0
 34119  1  0
 35120  1  0
 35121  1  0
 36122  1  0
 36123  1  0
 37124  1  0
 38125  1  0
 39126  1  0
 40127  1  0
 41128  1  0
 42129  1  0
 43130  1  0
 44131  1  0
 45132  1  0
 46133  1  0
 47134  1  0
 52135  1  0
 52136  1  0
 52137  1  0
 53138  1  0
 53139  1  0
 53140  1  0
 54141  1  0
 54142  1  0
 54143  1  0
 55144  1  0
 55145  1  0
 55146  1  0
 56147  1  0
 56148  1  0
 56149  1  0
 57150  1  0
 57151  1  0
 57152  1  0
 58153  1  0
 58154  1  0
 58155  1  0
 59156  1  0
 59157  1  0
 59158  1  0
 60159  1  0
 60160  1  0
 60161  1  0
 61162  1  0
 61163  1  0
 61164  1  0
 62165  1  0
 62166  1  0
 62167  1  0
 63168  1  0
 63169  1  0
 63170  1  0
 64171  1  0
 64172  1  0
 64173  1  0
 65174  1  0
 65175  1  0
 66176  1  0
 66177  1  0
 67178  1  0
 67179  1  0
 68180  1  0
 68181  1  0
 69182  1  0
 69183  1  0
 70184  1  0
 70185  1  0
 71186  1  0
 72187  1  0
 76188  1  0
 77189  1  0
 91190  1  0
M  END
> <Name>
BR010248

$$$$
BR010249
  SciTegic05062102053D

 49 49  0  0  1  0            999 V2000
   -2.9489   -2.3852    0.9259 C   0  0
   -1.5505    1.7303    0.4049 C   0  0
   -0.5781   -4.9802   -0.7549 C   0  0
    1.5578   -3.5952   -3.8607 C   0  0
    2.5357    2.4114   -1.3033 C   0  0
   -1.4240   -1.4908   -0.6420 C   0  0  1  0  0  0
   -0.7391   -0.1332   -0.8004 C   0  0  1  0  0  0
   -0.4804   -2.6337   -1.0165 C   0  0  2  0  0  0
   -0.0643   -0.0218   -2.1696 C   0  0  1  0  0  0
    0.2035   -2.3731   -2.3586 C   0  0  1  0  0  0
   -3.2456   -2.4561    2.3933 C   0  0
   -2.6594    2.7379    0.4373 C   0  0
   -1.4975   -6.1567   -0.8841 C   0  0
    2.5639   -4.7040   -3.9266 C   0  0
    3.5344    2.3113   -0.1903 C   0  0
    0.7314    1.2714   -2.3175 C   0  0
   -3.6287   -2.9235    0.0626 O   0  0
   -0.6332    1.6947    1.2139 O   0  0
    0.5888   -5.0588   -0.3953 O   0  0
    1.1638   -2.9687   -4.8351 O   0  0
    2.4693    3.3532   -2.0815 O   0  0
    0.8515   -1.1032   -2.3511 O   0  0
   -1.8241   -1.6404    0.7212 O   0  0
   -1.7290    0.8812   -0.6501 O   0  0
   -1.2427   -3.8373   -1.0959 O   0  0
    1.1656   -3.4063   -2.5667 O   0  0
    1.7264    1.3059   -1.3108 O   0  0
   -2.3429   -1.5299   -1.2405 H   0  0
   -0.0062   -0.0080    0.0071 H   0  0
    0.2643   -2.7781   -0.2236 H   0  0
   -0.8146   -0.0439   -2.9711 H   0  0
   -0.5186   -2.4258   -3.1832 H   0  0
   -2.7433   -3.3218    2.8318 H   0  0
   -4.3255   -2.5163    2.5509 H   0  0
   -2.8728   -1.5517    2.8827 H   0  0
   -2.3816    3.6143   -0.1534 H   0  0
   -2.8729    3.0215    1.4710 H   0  0
   -3.5623    2.2976    0.0042 H   0  0
   -2.0182   -6.3261    0.0616 H   0  0
   -0.9275   -7.0428   -1.1746 H   0  0
   -2.2413   -5.9522   -1.6598 H   0  0
    3.5718   -4.2975   -3.8119 H   0  0
    2.4684   -5.2356   -4.8767 H   0  0
    2.3784   -5.4108   -3.1126 H   0  0
    3.1250    2.7623    0.7170 H   0  0
    4.4646    2.8060   -0.4809 H   0  0
    3.7491    1.2576    0.0105 H   0  0
    0.0706    2.1303   -2.2006 H   0  0
    1.2085    1.3049   -3.2970 H   0  0
  1 11  1  0
  1 17  2  0
  1 23  1  0
  2 12  1  0
  2 18  2  0
  2 24  1  0
  3 13  1  0
  3 19  2  0
  3 25  1  0
  4 14  1  0
  4 20  2  0
  4 26  1  0
  5 15  1  0
  5 21  2  0
  5 27  1  0
  6  7  1  0
  6  8  1  0
  6 23  1  0
  7  9  1  0
  7 24  1  0
  8 10  1  0
  8 25  1  0
  9 16  1  0
  9 22  1  0
 10 22  1  0
 10 26  1  0
 16 27  1  0
  6 28  1  0
  7 29  1  0
  8 30  1  0
  9 31  1  0
 10 32  1  0
 11 33  1  0
 11 34  1  0
 11 35  1  0
 12 36  1  0
 12 37  1  0
 12 38  1  0
 13 39  1  0
 13 40  1  0
 13 41  1  0
 14 42  1  0
 14 43  1  0
 14 44  1  0
 15 45  1  0
 15 46  1  0
 15 47  1  0
 16 48  1  0
 16 49  1  0
M  END
> <Name>
BR010249

$$$$
BR010250
  SciTegic05062102053D

 49 49  0  0  1  0            999 V2000
    0.9545    0.1933    3.8445 C   0  0
    1.8894    1.5113    0.2277 C   0  0
   -1.9451   -2.7575    2.3054 C   0  0
   -4.7566    1.5507    2.1408 C   0  0
   -1.1531    0.3382   -3.5089 C   0  0
   -0.5151    0.5519    2.0298 C   0  0  1  0  0  0
   -0.3654    0.8803    0.5432 C   0  0  1  0  0  0
   -1.6825   -0.4097    2.2586 C   0  0  1  0  0  0
   -1.7084    1.3498   -0.0303 C   0  0  1  0  0  0
   -2.9601    0.1130    1.6038 C   0  0  2  0  0  0
    2.2293   -0.4951    4.2277 C   0  0
    2.7816    2.7044    0.0650 C   0  0
   -1.5525   -4.0153    1.5914 C   0  0
   -5.1132    2.7631    2.9465 C   0  0
   -0.7652   -1.0218   -4.0048 C   0  0
   -1.6307    1.5552   -1.5405 C   0  0
    0.2802    0.8644    4.6140 O   0  0
    2.2856    0.3536    0.2223 O   0  0
   -2.6597   -2.7278    3.2983 O   0  0
   -5.5489    0.9377    1.4382 O   0  0
   -1.3360    1.3058   -4.2351 O   0  0
   -2.7396    0.3903    0.2165 O   0  0
    0.6777   -0.0472    2.5289 O   0  0
    0.5950    1.9203    0.3784 O   0  0
   -1.3873   -1.6816    1.6786 O   0  0
   -3.4350    1.2503    2.3162 O   0  0
   -1.2676    0.3270   -2.1436 O   0  0
   -0.6714    1.4746    2.6011 H   0  0
    0.0017   -0.0017    0.0032 H   0  0
   -1.8275   -0.5640    3.3334 H   0  0
   -1.9940    2.3103    0.4158 H   0  0
   -3.7352   -0.6612    1.6489 H   0  0
    2.0125   -1.5040    4.5873 H   0  0
    2.7478    0.0847    4.9954 H   0  0
    2.8789   -0.5697    3.3507 H   0  0
    2.8706    2.9594   -0.9938 H   0  0
    3.7642    2.4942    0.4949 H   0  0
    2.3462    3.5575    0.5936 H   0  0
   -2.2859   -4.2452    0.8146 H   0  0
   -1.4765   -4.8390    2.3057 H   0  0
   -0.5763   -3.8741    1.1185 H   0  0
   -5.4435    2.4618    3.9436 H   0  0
   -5.8955    3.3306    2.4363 H   0  0
   -4.2313    3.4021    3.0497 H   0  0
    0.3237   -1.1065   -4.0418 H   0  0
   -1.1991   -1.1940   -4.9931 H   0  0
   -1.1508   -1.7816   -3.3187 H   0  0
   -0.8786    2.3083   -1.7746 H   0  0
   -2.6008    1.8720   -1.9227 H   0  0
  1 11  1  0
  1 17  2  0
  1 23  1  0
  2 12  1  0
  2 18  2  0
  2 24  1  0
  3 13  1  0
  3 19  2  0
  3 25  1  0
  4 14  1  0
  4 20  2  0
  4 26  1  0
  5 15  1  0
  5 21  2  0
  5 27  1  0
  6  7  1  0
  6  8  1  0
  6 23  1  0
  7  9  1  0
  7 24  1  0
  8 10  1  0
  8 25  1  0
  9 16  1  0
  9 22  1  0
 10 22  1  0
 10 26  1  0
 16 27  1  0
  6 28  1  0
  7 29  1  0
  8 30  1  0
  9 31  1  0
 10 32  1  0
 11 33  1  0
 11 34  1  0
 11 35  1  0
 12 36  1  0
 12 37  1  0
 12 38  1  0
 13 39  1  0
 13 40  1  0
 13 41  1  0
 14 42  1  0
 14 43  1  0
 14 44  1  0
 15 45  1  0
 15 46  1  0
 15 47  1  0
 16 48  1  0
 16 49  1  0
M  END
> <Name>
BR010250

$$$$
BR010251
  SciTegic05062102053D

 49 49  0  0  1  0            999 V2000
   -3.0783   -2.4352   -0.3674 C   0  0
   -2.0848    1.2500    0.0696 C   0  0
    1.0821   -3.9089    0.2345 C   0  0
    2.9040   -3.0408   -3.4126 C   0  0
    2.8231    2.4120   -0.1834 C   0  0
   -1.1070   -1.4272   -1.1930 C   0  0  1  0  0  0
   -0.4390   -0.0628   -1.0036 C   0  0  1  0  0  0
   -0.0595   -2.5340   -1.3115 C   0  0  1  0  0  0
    0.6358    0.1617   -2.0764 C   0  0  1  0  0  0
    0.9523   -2.1756   -2.3995 C   0  0  1  0  0  0
   -3.8871   -2.6261    0.8798 C   0  0
   -3.1108    2.3135   -0.1803 C   0  0
    1.7734   -3.8884    1.5641 C   0  0
    3.8530   -4.2001   -3.3745 C   0  0
    3.4186    2.1686    1.1702 C   0  0
    1.4348    1.4376   -1.8287 C   0  0
   -3.3854   -2.8926   -1.4599 O   0  0
   -1.8695    0.7496    1.1652 O   0  0
    0.9611   -4.9094   -0.4594 O   0  0
    3.0095   -2.0938   -4.1803 O   0  0
    3.0043    3.4293   -0.8387 O   0  0
    1.5702   -0.9225   -2.0973 O   0  0
   -1.9704   -1.6862   -0.0890 O   0  0
   -1.4469    0.9410   -1.0979 O   0  0
    0.6250   -2.6588   -0.0610 O   0  0
    1.9272   -3.2114   -2.4725 O   0  0
    2.0601    1.3390   -0.5622 O   0  0
   -1.7356   -1.4052   -2.0920 H   0  0
   -0.0081   -0.0071    0.0040 H   0  0
   -0.5332   -3.5023   -1.5066 H   0  0
    0.1708    0.2495   -3.0672 H   0  0
    0.4564   -2.1127   -3.3763 H   0  0
   -3.5602   -3.5304    1.3991 H   0  0
   -4.9487   -2.6888    0.6275 H   0  0
   -3.7376   -1.7696    1.5436 H   0  0
   -2.6609    3.3008   -0.0497 H   0  0
   -3.9553    2.1815    0.5007 H   0  0
   -3.4765    2.2302   -1.2079 H   0  0
    2.8348   -3.6676    1.4269 H   0  0
    1.6414   -4.8505    2.0657 H   0  0
    1.3328   -3.1069    2.1899 H   0  0
    4.6656   -3.9913   -2.6743 H   0  0
    4.2466   -4.3903   -4.3762 H   0  0
    3.3208   -5.0933   -3.0347 H   0  0
    2.7423    2.5383    1.9449 H   0  0
    4.3919    2.6607    1.2412 H   0  0
    3.5610    1.0938    1.3158 H   0  0
    0.7689    2.3006   -1.8356 H   0  0
    2.1971    1.5548   -2.5989 H   0  0
  1 11  1  0
  1 17  2  0
  1 23  1  0
  2 12  1  0
  2 18  2  0
  2 24  1  0
  3 13  1  0
  3 19  2  0
  3 25  1  0
  4 14  1  0
  4 20  2  0
  4 26  1  0
  5 15  1  0
  5 21  2  0
  5 27  1  0
  6  7  1  0
  6  8  1  0
  6 23  1  0
  7  9  1  0
  7 24  1  0
  8 10  1  0
  8 25  1  0
  9 16  1  0
  9 22  1  0
 10 22  1  0
 10 26  1  0
 16 27  1  0
  6 28  1  0
  7 29  1  0
  8 30  1  0
  9 31  1  0
 10 32  1  0
 11 33  1  0
 11 34  1  0
 11 35  1  0
 12 36  1  0
 12 37  1  0
 12 38  1  0
 13 39  1  0
 13 40  1  0
 13 41  1  0
 14 42  1  0
 14 43  1  0
 14 44  1  0
 15 45  1  0
 15 46  1  0
 15 47  1  0
 16 48  1  0
 16 49  1  0
M  END
> <Name>
BR010251

$$$$
BR010252
  SciTegic05062102053D

 49 49  0  0  1  0            999 V2000
    3.3097   -5.4537   -4.2911 C   0  0
    2.5006   -4.5816   -4.1307 C   0  0
   -2.9489   -2.3852    0.9259 C   0  0
   -1.5505    1.7303    0.4049 C   0  0
   -0.5781   -4.9802   -0.7549 C   0  0
    2.5357    2.4114   -1.3033 C   0  0
   -1.4240   -1.4908   -0.6420 C   0  0  1  0  0  0
   -0.7391   -0.1332   -0.8004 C   0  0  1  0  0  0
   -0.4804   -2.6337   -1.0165 C   0  0  2  0  0  0
   -0.0643   -0.0218   -2.1696 C   0  0  1  0  0  0
    0.2035   -2.3731   -2.3586 C   0  0  1  0  0  0
   -3.2456   -2.4561    2.3933 C   0  0
   -2.6594    2.7379    0.4373 C   0  0
   -1.4975   -6.1567   -0.8841 C   0  0
    3.5344    2.3113   -0.1903 C   0  0
    1.5142   -3.5182   -3.9378 C   0  0
    0.7314    1.2714   -2.3175 C   0  0
   -3.6287   -2.9235    0.0626 O   0  0
   -0.6332    1.6947    1.2139 O   0  0
    0.5888   -5.0588   -0.3953 O   0  0
    2.4693    3.3532   -2.0815 O   0  0
    0.8515   -1.1032   -2.3511 O   0  0
   -1.8241   -1.6404    0.7212 O   0  0
   -1.7290    0.8812   -0.6501 O   0  0
   -1.2427   -3.8373   -1.0959 O   0  0
    1.7264    1.3059   -1.3108 O   0  0
    1.1656   -3.4063   -2.5667 O   0  0
    4.0275   -6.2276   -4.4335 H   0  0
   -2.3429   -1.5299   -1.2405 H   0  0
   -0.0062   -0.0080    0.0071 H   0  0
    0.2643   -2.7781   -0.2236 H   0  0
   -0.8146   -0.0439   -2.9711 H   0  0
   -0.5186   -2.4258   -3.1832 H   0  0
   -2.7433   -3.3218    2.8318 H   0  0
   -4.3255   -2.5163    2.5509 H   0  0
   -2.8728   -1.5517    2.8827 H   0  0
   -2.3816    3.6143   -0.1534 H   0  0
   -2.8729    3.0215    1.4710 H   0  0
   -3.5623    2.2976    0.0042 H   0  0
   -2.0182   -6.3261    0.0616 H   0  0
   -0.9275   -7.0428   -1.1746 H   0  0
   -2.2413   -5.9522   -1.6598 H   0  0
    3.1250    2.7623    0.7170 H   0  0
    4.4646    2.8060   -0.4809 H   0  0
    3.7491    1.2576    0.0105 H   0  0
    0.6032   -3.7108   -4.5128 H   0  0
    1.9188   -2.5543   -4.2607 H   0  0
    0.0706    2.1303   -2.2006 H   0  0
    1.2085    1.3049   -3.2970 H   0  0
  1  2  3  0
  2 16  1  0
  3 12  1  0
  3 18  2  0
  3 23  1  0
  4 13  1  0
  4 19  2  0
  4 24  1  0
  5 14  1  0
  5 20  2  0
  5 25  1  0
  6 15  1  0
  6 21  2  0
  6 26  1  0
  7  8  1  0
  7  9  1  0
  7 23  1  0
  8 10  1  0
  8 24  1  0
  9 11  1  0
  9 25  1  0
 10 17  1  0
 10 22  1  0
 11 22  1  0
 11 27  1  0
 16 27  1  0
 17 26  1  0
  1 28  1  0
  7 29  1  0
  8 30  1  0
  9 31  1  0
 10 32  1  0
 11 33  1  0
 12 34  1  0
 12 35  1  0
 12 36  1  0
 13 37  1  0
 13 38  1  0
 13 39  1  0
 14 40  1  0
 14 41  1  0
 14 42  1  0
 15 43  1  0
 15 44  1  0
 15 45  1  0
 16 46  1  0
 16 47  1  0
 17 48  1  0
 17 49  1  0
M  END
> <Name>
BR010252

$$$$
BR010253
  SciTegic05062102053D

 49 49  0  0  1  0            999 V2000
    3.4953   -3.5797   -6.9713 C   0  0
    3.3720   -3.1167   -5.8707 C   0  0
   -0.1514    2.7277   -1.1123 C   0  0
   -2.1676   -0.5982   -0.6712 C   0  0
    1.0128    1.9772   -4.7638 C   0  0
   -0.0513   -3.2307    2.0855 C   0  0
    0.7233    0.6893   -1.9268 C   0  0  1  0  0  0
    0.1626   -0.3970   -1.0083 C   0  0  2  0  0  0
    1.0679    0.1207   -3.3030 C   0  0  2  0  0  0
    1.1199   -1.5934   -0.9760 C   0  0  1  0  0  0
    1.9375   -1.1315   -3.1696 C   0  0  1  0  0  0
   -1.2083    3.7587   -1.3695 C   0  0
   -3.4304   -1.0693   -1.3265 C   0  0
    1.8918    2.9615   -5.4741 C   0  0
   -0.1861   -2.6172    3.4462 C   0  0
    3.2238   -2.5535   -4.5283 C   0  0
    0.5950   -2.7518   -0.1363 C   0  0
    0.6512    2.7844   -0.1904 O   0  0
   -2.1187   -0.1064    0.4481 O   0  0
   -0.2082    1.9681   -4.8419 O   0  0
   -0.3267   -4.3949    1.8285 O   0  0
    1.3267   -2.0883   -2.3049 O   0  0
   -0.2303    1.7405   -2.0532 O   0  0
   -1.1121   -0.8043   -1.5106 O   0  0
    1.7818    1.1166   -4.0347 O   0  0
    0.4192   -2.3021    1.1952 O   0  0
    2.0984   -1.6910   -4.4725 O   0  0
    3.6048   -3.9904   -7.9479 H   0  0
    1.6205    1.1273   -1.4713 H   0  0
   -0.0004    0.0130   -0.0050 H   0  0
    0.1516   -0.0940   -3.8664 H   0  0
    2.0891   -1.2829   -0.5645 H   0  0
    2.9371   -0.8744   -2.7968 H   0  0
   -0.8169    4.5334   -2.0335 H   0  0
   -1.5403    4.1936   -0.4233 H   0  0
   -2.0667    3.2849   -1.8544 H   0  0
   -3.8817   -0.2512   -1.8932 H   0  0
   -4.1244   -1.4424   -0.5691 H   0  0
   -3.1981   -1.8852   -2.0171 H   0  0
    2.0530    3.8384   -4.8422 H   0  0
    1.4342    3.2496   -6.4239 H   0  0
    2.8609    2.4984   -5.6816 H   0  0
    0.7455   -2.7423    4.0034 H   0  0
   -1.0200   -3.0794    3.9806 H   0  0
   -0.3897   -1.5473    3.3430 H   0  0
    4.1117   -1.9850   -4.2347 H   0  0
    3.0740   -3.3483   -3.7915 H   0  0
    1.3108   -3.5747   -0.1460 H   0  0
   -0.3628   -3.0945   -0.5293 H   0  0
  1  2  3  0
  2 16  1  0
  3 12  1  0
  3 18  2  0
  3 23  1  0
  4 13  1  0
  4 19  2  0
  4 24  1  0
  5 14  1  0
  5 20  2  0
  5 25  1  0
  6 15  1  0
  6 21  2  0
  6 26  1  0
  7  8  1  0
  7  9  1  0
  7 23  1  0
  8 10  1  0
  8 24  1  0
  9 11  1  0
  9 25  1  0
 10 17  1  0
 10 22  1  0
 11 22  1  0
 11 27  1  0
 16 27  1  0
 17 26  1  0
  1 28  1  0
  7 29  1  0
  8 30  1  0
  9 31  1  0
 10 32  1  0
 11 33  1  0
 12 34  1  0
 12 35  1  0
 12 36  1  0
 13 37  1  0
 13 38  1  0
 13 39  1  0
 14 40  1  0
 14 41  1  0
 14 42  1  0
 15 43  1  0
 15 44  1  0
 15 45  1  0
 16 46  1  0
 16 47  1  0
 17 48  1  0
 17 49  1  0
M  END
> <Name>
BR010253

$$$$
BR010254
  SciTegic05062102053D

 49 49  0  0  1  0            999 V2000
   -5.6605    3.6242    3.4025 C   0  0
   -5.2761    2.6628    2.7950 C   0  0
    0.9545    0.1933    3.8445 C   0  0
    1.8894    1.5113    0.2277 C   0  0
   -1.9451   -2.7575    2.3054 C   0  0
   -1.1531    0.3382   -3.5089 C   0  0
   -0.5151    0.5519    2.0298 C   0  0  1  0  0  0
   -0.3654    0.8803    0.5432 C   0  0  1  0  0  0
   -1.6825   -0.4097    2.2586 C   0  0  1  0  0  0
   -1.7084    1.3498   -0.0303 C   0  0  1  0  0  0
   -2.9601    0.1130    1.6038 C   0  0  2  0  0  0
    2.2293   -0.4951    4.2277 C   0  0
    2.7816    2.7044    0.0650 C   0  0
   -1.5525   -4.0153    1.5914 C   0  0
   -0.7652   -1.0218   -4.0048 C   0  0
   -4.8099    1.4908    2.0534 C   0  0
   -1.6307    1.5552   -1.5405 C   0  0
    0.2802    0.8644    4.6140 O   0  0
    2.2856    0.3536    0.2223 O   0  0
   -2.6597   -2.7278    3.2983 O   0  0
   -1.3360    1.3058   -4.2351 O   0  0
   -2.7396    0.3903    0.2165 O   0  0
    0.6777   -0.0472    2.5289 O   0  0
    0.5950    1.9203    0.3784 O   0  0
   -1.3873   -1.6816    1.6786 O   0  0
   -1.2676    0.3270   -2.1436 O   0  0
   -3.4350    1.2503    2.3162 O   0  0
   -6.0016    4.4772    3.9414 H   0  0
   -0.6714    1.4746    2.6011 H   0  0
    0.0017   -0.0017    0.0032 H   0  0
   -1.8275   -0.5640    3.3334 H   0  0
   -1.9940    2.3103    0.4158 H   0  0
   -3.7352   -0.6612    1.6489 H   0  0
    2.0125   -1.5040    4.5873 H   0  0
    2.7478    0.0847    4.9954 H   0  0
    2.8789   -0.5697    3.3507 H   0  0
    2.8706    2.9594   -0.9938 H   0  0
    3.7642    2.4942    0.4949 H   0  0
    2.3462    3.5575    0.5936 H   0  0
   -2.2859   -4.2452    0.8146 H   0  0
   -1.4765   -4.8390    2.3057 H   0  0
   -0.5763   -3.8741    1.1185 H   0  0
    0.3237   -1.1065   -4.0418 H   0  0
   -1.1991   -1.1940   -4.9931 H   0  0
   -1.1508   -1.7816   -3.3187 H   0  0
   -4.9388    1.6247    0.9749 H   0  0
   -5.3692    0.5989    2.3513 H   0  0
   -0.8786    2.3083   -1.7746 H   0  0
   -2.6008    1.8720   -1.9227 H   0  0
  1  2  3  0
  2 16  1  0
  3 12  1  0
  3 18  2  0
  3 23  1  0
  4 13  1  0
  4 19  2  0
  4 24  1  0
  5 14  1  0
  5 20  2  0
  5 25  1  0
  6 15  1  0
  6 21  2  0
  6 26  1  0
  7  8  1  0
  7  9  1  0
  7 23  1  0
  8 10  1  0
  8 24  1  0
  9 11  1  0
  9 25  1  0
 10 17  1  0
 10 22  1  0
 11 22  1  0
 11 27  1  0
 16 27  1  0
 17 26  1  0
  1 28  1  0
  7 29  1  0
  8 30  1  0
  9 31  1  0
 10 32  1  0
 11 33  1  0
 12 34  1  0
 12 35  1  0
 12 36  1  0
 13 37  1  0
 13 38  1  0
 13 39  1  0
 14 40  1  0
 14 41  1  0
 14 42  1  0
 15 43  1  0
 15 44  1  0
 15 45  1  0
 16 46  1  0
 16 47  1  0
 17 48  1  0
 17 49  1  0
M  END
> <Name>
BR010254

$$$$
BR010255
  SciTegic05062102053D

 23 23  0  0  1  0            999 V2000
    0.5024    2.0992   -0.3299 C   0  0  1  0  0  0
   -0.3483    0.8678   -0.5677 C   0  0  2  0  0  0
    0.1236    2.9691   -1.5173 C   0  0  1  0  0  0
   -0.2432    0.7234   -2.0789 C   0  0  1  0  0  0
    1.0688   -0.1980   -3.7972 C   0  0
    1.2122    3.9495   -1.9166 C   0  0
   -0.1337    2.0615   -2.6034 O   0  0
    0.2337    2.7369    0.9006 O   0  0
   -1.7007    1.1360   -0.2108 O   0  0
    0.7648    4.7001   -3.0335 O   0  0
    0.9205   -0.0318   -2.3941 O   0  0
    1.5652    1.8294   -0.3656 H   0  0
   -0.0001    0.0002    0.0004 H   0  0
   -0.7999    3.5278   -1.3180 H   0  0
   -1.1205    0.2393   -2.5202 H   0  0
    1.9701   -0.7808   -4.0026 H   0  0
    1.1389    0.7821   -4.2757 H   0  0
    0.1973   -0.7298   -4.1862 H   0  0
    2.1235    3.4130   -2.1905 H   0  0
    1.4280    4.6329   -1.0921 H   0  0
    0.4151    2.0917    1.6068 H   0  0
   -2.1989    0.3213   -0.3810 H   0  0
    1.4795    5.3164   -3.2653 H   0  0
  1  2  1  0
  1  3  1  0
  1  8  1  0
  2  4  1  0
  2  9  1  0
  3  6  1  0
  3  7  1  0
  4  7  1  0
  4 11  1  0
  5 11  1  0
  6 10  1  0
  1 12  1  0
  2 13  1  0
  3 14  1  0
  4 15  1  0
  5 16  1  0
  5 17  1  0
  5 18  1  0
  6 19  1  0
  6 20  1  0
  8 21  1  0
  9 22  1  0
 10 23  1  0
M  END
> <Name>
BR010255

$$$$
BR010256
  SciTegic05062102053D

 39 40  0  0  1  0            999 V2000
   -0.0994    6.9550   -7.0349 C   0  0
    1.2377    5.1288   -7.8801 C   0  0
    0.4184    6.7427   -5.7572 C   0  0
    1.7555    4.9165   -6.6024 C   0  0
    0.3102    6.1479   -8.0964 C   0  0
    1.3458    5.7236   -5.5410 C   0  0
    0.0561    1.7451   -2.4159 C   0  0  1  0  0  0
   -1.3964    1.3378   -2.2711 C   0  0  2  0  0  0
    0.1236    2.9691   -1.5173 C   0  0  1  0  0  0
   -2.0839    2.6952   -2.2557 C   0  0  1  0  0  0
   -0.2438    6.3741   -9.4624 C   0  0
   -2.9849    4.3672   -3.6397 C   0  0
    1.2122    3.9495   -1.9166 C   0  0
    3.2887    4.8148   -4.1182 O   0  0
    1.8826    6.7104   -3.2054 O   0  0
   -1.1630    3.6045   -1.6210 O   0  0
    0.9627    0.7413   -2.0119 O   0  0
   -1.5965    0.6916   -1.0178 O   0  0
   -2.3415    3.1013   -3.5945 O   0  0
    0.9701    4.3865   -3.2438 O   0  0
    2.0029    5.4563   -3.9247 S   0  0
   -0.8217    7.7512   -7.1938 H   0  0
    1.5623    4.4948   -8.7010 H   0  0
    0.0921    7.3769   -4.9371 H   0  0
    2.4772    4.1194   -6.4451 H   0  0
    0.2647    2.0135   -3.4590 H   0  0
   -1.7264    0.6666   -3.0695 H   0  0
    0.2744    2.6807   -0.4690 H   0  0
   -3.0222    2.6884   -1.6915 H   0  0
    0.3807    7.0871  -10.0146 H   0  0
   -0.2908    5.4378  -10.0335 H   0  0
   -1.2668    6.7699   -9.4170 H   0  0
   -3.1671    4.6472   -4.6801 H   0  0
   -2.3529    5.1156   -3.1551 H   0  0
   -3.9384    4.3004   -3.1105 H   0  0
    2.1912    3.4667   -1.8740 H   0  0
    1.2059    4.8152   -1.2503 H   0  0
    0.8003   -0.0381   -2.5724 H   0  0
   -2.5358    0.4530   -0.9760 H   0  0
  1  3  2  0
  1  5  1  0
  2  4  1  0
  2  5  2  0
  3  6  1  0
  4  6  2  0
  5 11  1  0
  6 21  1  0
  7  8  1  0
  7  9  1  0
  7 17  1  0
  8 10  1  0
  8 18  1  0
  9 13  1  0
  9 16  1  0
 10 16  1  0
 10 19  1  0
 12 19  1  0
 13 20  1  0
 14 21  2  0
 15 21  2  0
 20 21  1  0
  1 22  1  0
  2 23  1  0
  3 24  1  0
  4 25  1  0
  7 26  1  0
  8 27  1  0
  9 28  1  0
 10 29  1  0
 11 30  1  0
 11 31  1  0
 11 32  1  0
 12 33  1  0
 12 34  1  0
 12 35  1  0
 13 36  1  0
 13 37  1  0
 17 38  1  0
 18 39  1  0
M  END
> <Name>
BR010256

$$$$
BR010257
  SciTegic05062102053D

 24 24  0  0  1  0            999 V2000
    0.5024    2.0992   -0.3299 C   0  0  1  0  0  0
   -0.3483    0.8678   -0.5677 C   0  0  2  0  0  0
    0.1236    2.9691   -1.5173 C   0  0  1  0  0  0
   -0.2432    0.7234   -2.0789 C   0  0  1  0  0  0
    1.0688   -0.1980   -3.7972 C   0  0
    1.2122    3.9495   -1.9166 C   0  0
    2.2636    6.3814   -3.8844 N   0  5
    0.7468    4.7358   -3.0568 N   0  0
    1.5404    5.5941   -3.4867 N   0  3
   -0.1337    2.0615   -2.6034 O   0  0
    0.2337    2.7369    0.9006 O   0  0
   -1.7007    1.1360   -0.2108 O   0  0
    0.9205   -0.0318   -2.3941 O   0  0
    1.5652    1.8294   -0.3656 H   0  0
   -0.0001    0.0002    0.0004 H   0  0
   -0.7999    3.5278   -1.3180 H   0  0
   -1.1205    0.2393   -2.5202 H   0  0
    1.9701   -0.7808   -4.0026 H   0  0
    1.1389    0.7821   -4.2757 H   0  0
    0.1973   -0.7298   -4.1862 H   0  0
    2.1225    3.4099   -2.1901 H   0  0
    1.4432    4.6160   -1.0815 H   0  0
    0.4151    2.0917    1.6068 H   0  0
   -2.1989    0.3213   -0.3810 H   0  0
  1  2  1  0
  1  3  1  0
  1 11  1  0
  2  4  1  0
  2 12  1  0
  3  6  1  0
  3 10  1  0
  4 10  1  0
  4 13  1  0
  5 13  1  0
  6  8  1  0
  7  9  2  0
  8  9  2  0
  1 14  1  0
  2 15  1  0
  3 16  1  0
  4 17  1  0
  5 18  1  0
  5 19  1  0
  5 20  1  0
  6 21  1  0
  6 22  1  0
 11 23  1  0
 12 24  1  0
M  CHG  2   7  -1   9   1
M  END
> <Name>
BR010257

$$$$
BR010258
  SciTegic05062102053D

 33 34  0  0  1  0            999 V2000
    0.3070    2.6640   -1.1996 C   0  0
   -0.5153    3.5383   -1.7926 C   0  0
   -1.3380    4.4295   -0.9321 C   0  0
   -0.2995    3.3383    1.0542 C   0  0
    1.9404   -0.7419    0.5596 C   0  0  1  0  0  0
    0.7477    0.1630    0.7858 C   0  0  2  0  0  0
    2.7248    0.0226   -0.4980 C   0  0  1  0  0  0
    1.3733    1.5427    0.6747 C   0  0  2  0  0  0
   -0.6542    3.6690   -3.2753 C   0  0
    2.2816   -0.2918   -1.9206 C   0  0
    2.6255    0.1801   -5.1688 N   0  5
    3.0971    0.4852   -2.8492 N   0  0
    2.8493    0.3244   -4.0597 N   0  3
   -1.1579    4.2509    0.4311 N   0  0
    0.4520    2.5240    0.1767 N   0  0
   -2.1115    5.2535   -1.4128 O   0  0
   -0.2245    3.2712    2.2829 O   0  0
    2.4697    1.4219   -0.2462 O   0  0
    2.7418   -0.8086    1.7389 O   0  0
    0.1373   -0.0577    2.0407 O   0  0
    0.9250    1.9950   -1.7908 H   0  0
    1.6709   -1.7627    0.2763 H   0  0
    0.0001   -0.0004    0.0011 H   0  0
    3.8046   -0.1386   -0.4058 H   0  0
    1.7571    1.9084    1.6342 H   0  0
   -1.4381    3.0019   -3.6316 H   0  0
    0.2876    3.4092   -3.7579 H   0  0
   -0.9105    4.6965   -3.5317 H   0  0
    1.2287   -0.0334   -2.0478 H   0  0
    2.4062   -1.3575   -2.1221 H   0  0
   -1.7075    4.8463    1.0445 H   0  0
    3.4833   -1.3976    1.5332 H   0  0
   -0.6140    0.5574    2.1080 H   0  0
  1  2  2  0
  1 15  1  0
  2  3  1  0
  2  9  1  0
  3 14  1  0
  3 16  2  0
  4 14  1  0
  4 15  1  0
  4 17  2  0
  5  6  1  0
  5  7  1  0
  5 19  1  0
  6  8  1  0
  6 20  1  0
  7 10  1  0
  7 18  1  0
  8 15  1  0
  8 18  1  0
 10 12  1  0
 11 13  2  0
 12 13  2  0
  1 21  1  0
  5 22  1  0
  6 23  1  0
  7 24  1  0
  8 25  1  0
  9 26  1  0
  9 27  1  0
  9 28  1  0
 10 29  1  0
 10 30  1  0
 14 31  1  0
 19 32  1  0
 20 33  1  0
M  CHG  2  11  -1  13   1
M  END
> <Name>
BR010258

$$$$
BR010259
  SciTegic05062102053D

 82 85  0  0  1  0            999 V2000
   -0.7127   -6.2674   -2.6195 C   0  0
    0.5177   -5.6598   -2.6348 C   0  0
   -2.1236   -9.5901   -1.5759 C   0  0
   -2.2833   -9.5567   -0.2471 C   0  0
   -2.5708  -10.8319    0.4620 C   0  0
   -2.4785  -11.9875   -1.7450 C   0  0
    5.1301   -7.6117    3.2894 C   0  0
    7.6322   -4.1603    2.2938 C   0  0
    2.4145   -8.3038    0.5826 C   0  0
    7.2590   -2.3403   -1.7839 C   0  0
    4.7292   -5.8339    1.7852 C   0  0  1  0  0  0
   -2.7627   -9.4876   -5.6921 C   0  0  1  0  0  0
    5.5884   -4.6952    1.2353 C   0  0  1  0  0  0
   -3.2926  -10.2618   -4.5038 C   0  0  2  0  0  0
    3.7927   -6.3886    0.7117 C   0  0  2  0  0  0
   -1.5943   -8.7259   -5.0812 C   0  0  1  0  0  0
    4.7227   -3.6651    0.5060 C   0  0  1  0  0  0
   -2.0137  -10.6283   -3.7706 C   0  0  2  0  0  0
    3.0473   -5.2660   -0.0100 C   0  0  1  0  0  0
   -2.1894   -8.3060    0.5665 C   0  0
    6.1355   -8.6622    3.6523 C   0  0
    8.2083   -3.4826    3.5000 C   0  0
    1.4382   -9.1250    1.3692 C   0  0
    8.1213   -3.1209   -2.7290 C   0  0
    1.2584   -4.9978   -1.5103 C   0  0
   -2.0010   -7.3958   -4.4613 C   0  0
    5.5586   -2.5765   -0.1601 C   0  0
    1.0487   -5.7290   -3.8928 N   0  0
    0.1785   -6.3659   -4.6688 N   0  0
   -0.8770   -6.6877   -3.9035 N   0  0
   -2.6448  -11.9490   -0.3562 N   0  0
   -2.2073  -10.7406   -2.3530 N   0  0
   -2.7275  -10.8702    1.6795 O   0  0
   -2.5675  -13.0476   -2.3680 O   0  0
    4.0615   -7.4579    3.8653 O   0  0
    8.3041   -4.6922    1.4204 O   0  0
    2.7524   -8.5553   -0.5662 O   0  0
    7.3034   -1.1237   -1.6618 O   0  0
   -1.0754   -9.5718   -4.0315 O   0  0
    3.9669   -4.3051   -0.5236 O   0  0
   -2.2394  -10.3830   -6.6728 O   0  0
   -4.0403  -11.3959   -4.8926 O   0  0
    5.5943   -6.8769    2.2375 O   0  0
    6.2687   -4.0869    2.3301 O   0  0
    2.8520   -7.2569    1.3420 O   0  0
    6.4317   -3.1862   -1.0932 O   0  0
    2.3088   -5.8505   -1.0821 O   0  0
   -1.4493   -6.4308   -1.8456 H   0  0
   -1.9126   -8.6818   -2.1320 H   0  0
    4.1630   -5.4987    2.6633 H   0  0
   -3.5128   -8.8570   -6.1766 H   0  0
    6.3465   -5.1149    0.5615 H   0  0
   -3.9323   -9.6159   -3.8916 H   0  0
    4.3619   -6.9974   -0.0021 H   0  0
   -0.7873   -8.5612   -5.8033 H   0  0
    4.0358   -3.1739    1.2079 H   0  0
   -1.5854  -11.5748   -4.1205 H   0  0
    2.3259   -4.7808    0.6596 H   0  0
   -3.1719   -7.8417    0.6419 H   0  0
   -1.4968   -7.6102    0.0939 H   0  0
   -1.8247   -8.5433    1.5654 H   0  0
    5.9372   -9.5763    3.0873 H   0  0
    6.0968   -8.8571    4.7270 H   0  0
    7.1387   -8.3068    3.3994 H   0  0
    8.3846   -2.4262    3.2831 H   0  0
    9.1380   -3.9762    3.7941 H   0  0
    7.4990   -3.5546    4.3297 H   0  0
    1.9688   -9.9071    1.9177 H   0  0
    0.6949   -9.5617    0.6974 H   0  0
    0.9218   -8.4833    2.0890 H   0  0
    9.0481   -3.4138   -2.2297 H   0  0
    8.3349   -2.5214   -3.6175 H   0  0
    7.5916   -4.0262   -3.0397 H   0  0
    1.6837   -4.0407   -1.8311 H   0  0
    0.5880   -4.8021   -0.6665 H   0  0
   -2.7334   -7.5504   -3.6609 H   0  0
   -2.4699   -6.7478   -5.2104 H   0  0
    6.1460   -2.0471    0.5902 H   0  0
    4.9081   -1.8740   -0.6810 H   0  0
   -2.8406  -12.8354    0.1007 H   0  0
   -1.9181   -9.8324   -7.4027 H   0  0
   -4.3427  -11.8349   -4.0783 H   0  0
  1  2  2  0
  1 30  1  0
  2 25  1  0
  2 28  1  0
  3  4  2  0
  3 32  1  0
  4  5  1  0
  4 20  1  0
  5 31  1  0
  5 33  2  0
  6 31  1  0
  6 32  1  0
  6 34  2  0
  7 21  1  0
  7 35  2  0
  7 43  1  0
  8 22  1  0
  8 36  2  0
  8 44  1  0
  9 23  1  0
  9 37  2  0
  9 45  1  0
 10 24  1  0
 10 38  2  0
 10 46  1  0
 11 13  1  0
 11 15  1  0
 11 43  1  0
 12 14  1  0
 12 16  1  0
 12 41  1  0
 13 17  1  0
 13 44  1  0
 14 18  1  0
 14 42  1  0
 15 19  1  0
 15 45  1  0
 16 26  1  0
 16 39  1  0
 17 27  1  0
 17 40  1  0
 18 32  1  0
 18 39  1  0
 19 40  1  0
 19 47  1  0
 25 47  1  0
 26 30  1  0
 27 46  1  0
 28 29  2  0
 29 30  1  0
  1 48  1  0
  3 49  1  0
 11 50  1  0
 12 51  1  0
 13 52  1  0
 14 53  1  0
 15 54  1  0
 16 55  1  0
 17 56  1  0
 18 57  1  0
 19 58  1  0
 20 59  1  0
 20 60  1  0
 20 61  1  0
 21 62  1  0
 21 63  1  0
 21 64  1  0
 22 65  1  0
 22 66  1  0
 22 67  1  0
 23 68  1  0
 23 69  1  0
 23 70  1  0
 24 71  1  0
 24 72  1  0
 24 73  1  0
 25 74  1  0
 25 75  1  0
 26 76  1  0
 26 77  1  0
 27 78  1  0
 27 79  1  0
 31 80  1  0
 41 81  1  0
 42 82  1  0
M  END
> <Name>
BR010259

$$$$
BR010260
  SciTegic05062102053D

 82 85  0  0  1  0            999 V2000
    1.0967   -7.5237   -4.7307 C   0  0
    1.7874   -7.6736   -3.5545 C   0  0
   -0.9581   -4.8500   -6.3889 C   0  0
   -0.1068   -3.9790   -6.9447 C   0  0
   -0.6432   -2.6807   -7.4329 C   0  0
   -2.9001   -3.4183   -6.6734 C   0  0
    6.1907   -1.3919   -0.3068 C   0  0
    5.7274   -4.1271    2.4546 C   0  0
    2.3367   -3.1966   -2.7389 C   0  0
    8.6089   -7.3377    1.8237 C   0  0
    5.3953   -3.5412   -0.8827 C   0  0  1  0  0  0
   -3.6789   -7.9400   -5.7476 C   0  0  1  0  0  0
    6.0129   -4.4973    0.1383 C   0  0  2  0  0  0
   -3.5877   -6.7008   -6.6127 C   0  0  2  0  0  0
    4.0945   -4.1089   -1.4498 C   0  0  2  0  0  0
   -2.4828   -7.7706   -4.8207 C   0  0  1  0  0  0
    6.1483   -5.8949   -0.4761 C   0  0  1  0  0  0
   -3.1174   -5.6549   -5.6166 C   0  0  2  0  0  0
    4.2986   -5.5435   -1.9420 C   0  0  1  0  0  0
    1.3568   -4.2389   -7.1036 C   0  0
    5.7953   -0.1184    0.3771 C   0  0
    4.7261   -4.2351    3.5644 C   0  0
    2.0564   -2.3072   -3.9121 C   0  0
    9.9527   -6.7781    2.1802 C   0  0
    3.1541   -7.1724   -3.1909 C   0  0
   -1.1898   -8.3313   -5.3977 C   0  0
    6.6908   -6.9258    0.5064 C   0  0
    1.0324   -8.3883   -2.6663 N   0  0
   -0.1172   -8.6916   -3.2591 N   0  0
   -0.0766   -8.1724   -4.4969 N   0  0
   -2.0076   -2.5103   -7.2538 N   0  0
   -2.3225   -4.6303   -6.2316 N   0  0
    0.0841   -1.8381   -7.9519 O   0  0
   -4.0995   -3.1535   -6.5680 O   0  0
    7.2851   -1.5830   -0.8196 O   0  0
    6.8716   -3.7192    2.6014 O   0  0
    1.4697   -3.7462   -2.0731 O   0  0
    8.1596   -8.3821    2.2760 O   0  0
   -2.3167   -6.3466   -4.6444 O   0  0
    4.8666   -6.3592   -0.9182 O   0  0
   -4.8622   -7.9011   -4.9502 O   0  0
   -4.8262   -6.3684   -7.2059 O   0  0
    5.1538   -2.2804   -0.2644 O   0  0
    5.1628   -4.5482    1.2862 O   0  0
    3.6846   -3.2876   -2.5428 O   0  0
    7.9776   -6.5129    0.9305 O   0  0
    3.0230   -6.0602   -2.3195 O   0  0
    1.3251   -7.0352   -5.6675 H   0  0
   -0.6078   -5.8091   -6.0198 H   0  0
    6.1088   -3.3641   -1.6974 H   0  0
   -3.6850   -8.8739   -6.3157 H   0  0
    6.9829   -4.1098    0.4702 H   0  0
   -2.8500   -6.8538   -7.4087 H   0  0
    3.2979   -4.0600   -0.6974 H   0  0
   -2.6621   -8.2081   -3.8327 H   0  0
    6.8231   -5.8568   -1.3410 H   0  0
   -3.9496   -5.1612   -5.1014 H   0  0
    4.9377   -5.5628   -2.8338 H   0  0
    1.5429   -4.7201   -8.0630 H   0  0
    1.7049   -4.8882   -6.3007 H   0  0
    1.9046   -3.2981   -7.0593 H   0  0
    5.3440    0.5660   -0.3455 H   0  0
    6.6706    0.3382    0.8459 H   0  0
    5.0591   -0.3384    1.1557 H   0  0
    4.1612   -3.3032    3.6463 H   0  0
    5.2367   -4.4602    4.5041 H   0  0
    4.0277   -5.0479    3.3449 H   0  0
    1.9514   -1.2726   -3.5765 H   0  0
    1.1493   -2.6410   -4.4222 H   0  0
    2.8915   -2.3621   -4.6165 H   0  0
   10.7084   -7.1592    1.4890 H   0  0
   10.2036   -7.0435    3.2103 H   0  0
    9.9244   -5.6876    2.0992 H   0  0
    3.7368   -7.9525   -2.6892 H   0  0
    3.7049   -6.8644   -4.0862 H   0  0
   -0.9370   -7.8293   -6.3385 H   0  0
   -1.2962   -9.3996   -5.6175 H   0  0
    6.7677   -7.8997    0.0215 H   0  0
    6.0330   -6.9987    1.3731 H   0  0
   -2.4029   -1.6321   -7.5782 H   0  0
   -4.8640   -8.7142   -4.4229 H   0  0
   -4.6840   -5.5679   -7.7409 H   0  0
  1  2  2  0
  1 30  1  0
  2 25  1  0
  2 28  1  0
  3  4  2  0
  3 32  1  0
  4  5  1  0
  4 20  1  0
  5 31  1  0
  5 33  2  0
  6 31  1  0
  6 32  1  0
  6 34  2  0
  7 21  1  0
  7 35  2  0
  7 43  1  0
  8 22  1  0
  8 36  2  0
  8 44  1  0
  9 23  1  0
  9 37  2  0
  9 45  1  0
 10 24  1  0
 10 38  2  0
 10 46  1  0
 11 13  1  0
 11 15  1  0
 11 43  1  0
 12 14  1  0
 12 16  1  0
 12 41  1  0
 13 17  1  0
 13 44  1  0
 14 18  1  0
 14 42  1  0
 15 19  1  0
 15 45  1  0
 16 26  1  0
 16 39  1  0
 17 27  1  0
 17 40  1  0
 18 32  1  0
 18 39  1  0
 19 40  1  0
 19 47  1  0
 25 47  1  0
 26 30  1  0
 27 46  1  0
 28 29  2  0
 29 30  1  0
  1 48  1  0
  3 49  1  0
 11 50  1  0
 12 51  1  0
 13 52  1  0
 14 53  1  0
 15 54  1  0
 16 55  1  0
 17 56  1  0
 18 57  1  0
 19 58  1  0
 20 59  1  0
 20 60  1  0
 20 61  1  0
 21 62  1  0
 21 63  1  0
 21 64  1  0
 22 65  1  0
 22 66  1  0
 22 67  1  0
 23 68  1  0
 23 69  1  0
 23 70  1  0
 24 71  1  0
 24 72  1  0
 24 73  1  0
 25 74  1  0
 25 75  1  0
 26 76  1  0
 26 77  1  0
 27 78  1  0
 27 79  1  0
 31 80  1  0
 41 81  1  0
 42 82  1  0
M  END
> <Name>
BR010260

$$$$
BR010261
  SciTegic05062102053D

 82 85  0  0  1  0            999 V2000
   -4.4923    2.5555   -0.0217 C   0  0
   -5.0210    2.0241   -1.1711 C   0  0
   -2.1715    1.4307    2.7113 C   0  0
   -0.9210    1.5546    2.2497 C   0  0
    0.1830    0.9268    3.0234 C   0  0
   -1.5223    0.1311    4.6585 C   0  0
    0.2162   -2.1922   -1.9634 C   0  0
    2.4995    1.0104   -2.4350 C   0  0
   -2.0612   -1.4368   -5.6684 C   0  0
    1.0044    4.4471   -5.6830 C   0  0
   -0.4515   -0.0622   -2.7372 C   0  0  1  0  0  0
   -5.7968    2.0384    4.6734 C   0  0  1  0  0  0
    0.2579    1.2293   -3.1487 C   0  0  1  0  0  0
   -4.3357    1.9150    5.0506 C   0  0  2  0  0  0
   -1.6712   -0.3180   -3.6240 C   0  0  1  0  0  0
   -5.7808    1.6459    3.2023 C   0  0  1  0  0  0
   -0.7476    2.3859   -3.2102 C   0  0  1  0  0  0
   -3.9050    0.6985    4.2494 C   0  0  2  0  0  0
   -2.5830    0.9071   -3.6694 C   0  0  2  0  0  0
   -0.5705    2.2914    0.9970 C   0  0
    1.2173   -3.2836   -2.1927 C   0  0
    3.4524    1.4252   -1.3552 C   0  0
   -1.5010   -1.6353   -7.0443 C   0  0
    1.4734    4.0261   -7.0427 C   0  0
   -4.3886    1.8823   -2.5244 C   0  0
   -5.4946    2.8157    2.2703 C   0  0
   -0.1029    3.6597   -3.7497 C   0  0
   -6.2975    1.5952   -0.9341 N   0  0
   -6.5828    1.8464    0.3389 N   0  0
   -5.4992    2.4224    0.8842 N   0  0
   -0.2165    0.2625    4.1731 N   0  0
   -2.5209    0.7513    3.8737 N   0  0
    1.3519    1.0030    2.6545 O   0  0
   -1.7558   -0.4873    5.6992 O   0  0
   -0.6578   -2.2327   -1.1080 O   0  0
    2.8050    0.2985   -3.3821 O   0  0
   -3.0907   -1.9610   -5.2656 O   0  0
    1.1581    5.5703   -5.2225 O   0  0
   -4.7115    0.6852    3.0602 O   0  0
   -1.8478    2.0696   -4.0672 O   0  0
   -6.5735    1.0703    5.3784 O   0  0
   -4.1533    1.7426    6.4410 O   0  0
    0.4355   -1.1723   -2.8449 O   0  0
    1.2664    1.5455   -2.1927 O   0  0
   -1.2520   -0.5960   -4.9613 O   0  0
    0.3902    3.3982   -5.0507 O   0  0
   -3.2254    1.0754   -2.4102 O   0  0
   -3.5345    2.9942    0.2200 H   0  0
   -3.0063    1.8740    2.1770 H   0  0
   -0.7579    0.0001   -1.6862 H   0  0
   -6.2219    3.0249    4.8760 H   0  0
    0.7504    1.0893   -4.1194 H   0  0
   -3.7912    2.8128    4.7364 H   0  0
   -2.2136   -1.1973   -3.2598 H   0  0
   -6.7107    1.1542    2.8970 H   0  0
   -1.1253    2.6113   -2.2053 H   0  0
   -4.0629   -0.2402    4.7932 H   0  0
   -3.3606    0.7541   -4.4270 H   0  0
   -0.3705    3.3368    1.2288 H   0  0
   -1.3975    2.2304    0.2901 H   0  0
    0.3148    1.8464    0.5437 H   0  0
    0.8272   -3.9975   -2.9223 H   0  0
    1.4443   -3.7833   -1.2476 H   0  0
    2.1412   -2.8510   -2.5878 H   0  0
    3.9425    2.3617   -1.6326 H   0  0
    4.1916    0.6373   -1.1901 H   0  0
    2.8994    1.5835   -0.4247 H   0  0
   -1.9045   -0.8787   -7.7217 H   0  0
   -1.7414   -2.6400   -7.4012 H   0  0
   -0.4128   -1.5292   -7.0115 H   0  0
    2.4916    3.6344   -6.9790 H   0  0
    1.4292    4.8750   -7.7297 H   0  0
    0.8192    3.2363   -7.4235 H   0  0
   -5.0802    1.4137   -3.2328 H   0  0
   -4.1082    2.8620   -2.9259 H   0  0
   -4.5163    3.2566    2.4927 H   0  0
   -6.2439    3.6049    2.3996 H   0  0
    0.7225    3.9600   -3.1046 H   0  0
   -0.8424    4.4587   -3.7979 H   0  0
    0.5168   -0.1766    4.7229 H   0  0
   -7.4920    1.1984    5.0971 H   0  0
   -4.5330    2.5236    6.8806 H   0  0
  1  2  2  0
  1 30  1  0
  2 25  1  0
  2 28  1  0
  3  4  2  0
  3 32  1  0
  4  5  1  0
  4 20  1  0
  5 31  1  0
  5 33  2  0
  6 31  1  0
  6 32  1  0
  6 34  2  0
  7 21  1  0
  7 35  2  0
  7 43  1  0
  8 22  1  0
  8 36  2  0
  8 44  1  0
  9 23  1  0
  9 37  2  0
  9 45  1  0
 10 24  1  0
 10 38  2  0
 10 46  1  0
 11 13  1  0
 11 15  1  0
 11 43  1  0
 12 14  1  0
 12 16  1  0
 12 41  1  0
 13 17  1  0
 13 44  1  0
 14 18  1  0
 14 42  1  0
 15 19  1  0
 15 45  1  0
 16 26  1  0
 16 39  1  0
 17 27  1  0
 17 40  1  0
 18 32  1  0
 18 39  1  0
 19 40  1  0
 19 47  1  0
 25 47  1  0
 26 30  1  0
 27 46  1  0
 28 29  2  0
 29 30  1  0
  1 48  1  0
  3 49  1  0
 11 50  1  0
 12 51  1  0
 13 52  1  0
 14 53  1  0
 15 54  1  0
 16 55  1  0
 17 56  1  0
 18 57  1  0
 19 58  1  0
 20 59  1  0
 20 60  1  0
 20 61  1  0
 21 62  1  0
 21 63  1  0
 21 64  1  0
 22 65  1  0
 22 66  1  0
 22 67  1  0
 23 68  1  0
 23 69  1  0
 23 70  1  0
 24 71  1  0
 24 72  1  0
 24 73  1  0
 25 74  1  0
 25 75  1  0
 26 76  1  0
 26 77  1  0
 27 78  1  0
 27 79  1  0
 31 80  1  0
 41 81  1  0
 42 82  1  0
M  END
> <Name>
BR010261

$$$$
BR010262
  SciTegic05062102053D

 73 75  0  0  1  0            999 V2000
    7.6828    1.2361   -1.3483 C   0  0
    6.4871    1.9039   -1.2627 C   0  0
    3.6509   -2.7111    4.2905 C   0  0
    0.5065    0.2608    4.9573 C   0  0
    6.4304   -1.4144    1.8878 C   0  0
    1.1362    4.4318    3.4454 C   0  0
    3.0769   -0.8025    3.0210 C   0  0  1  0  0  0
   12.2818    1.9143   -1.1858 C   0  0  1  0  0  0
    2.1356    0.3801    3.2498 C   0  0  1  0  0  0
   12.7888    1.3289    0.1168 C   0  0  2  0  0  0
    4.3588   -0.3608    2.3146 C   0  0  2  0  0  0
   10.7961    2.0601   -0.9003 C   0  0  1  0  0  0
    1.9460    1.1810    1.9594 C   0  0  1  0  0  0
   11.6646    0.3641    0.4646 C   0  0  1  0  0  0
    4.0505    0.5052    1.0932 C   0  0  1  0  0  0
    3.9876   -3.1616    5.6796 C   0  0
   -0.8185   -0.3500    5.3001 C   0  0
    7.0397   -2.7085    1.4404 C   0  0
    1.9365    5.1862    4.4635 C   0  0
   10.8830   -1.8241    0.1133 C   0  0
    5.1593    1.4050   -0.7733 C   0  0
    9.9357    2.0147   -2.1506 C   0  0
    1.1092    2.4378    2.1776 C   0  0
    6.6450    3.1876   -1.7061 N   0  0
    7.9137    3.3409   -2.0693 N   0  0
    8.5342    2.1696   -1.8542 N   0  0
    3.6050   -3.4560    3.3208 O   0  0
    1.1348    0.9984    5.7046 O   0  0
    7.0773   -0.4202    2.1880 O   0  0
    0.0788    4.8281    2.9743 O   0  0
   10.4525    0.9631   -0.0352 O   0  0
    3.2151    1.6019    1.4561 O   0  0
   12.8810    3.1491   -1.5162 O   0  0
   12.8629    2.3470    1.1099 O   0  0
    3.4113   -1.3678    4.2896 O   0  0
    0.8858   -0.1318    3.7052 O   0  0
    5.0699   -1.5278    1.9042 O   0  0
    1.7621    3.2537    3.1330 O   0  0
   11.9058   -0.8820   -0.1779 O   0  0
    5.2896    0.9903    0.5776 O   0  0
    7.9884    0.2284   -1.1044 H   0  0
    2.5700   -1.5931    2.4536 H   0  0
   12.4552    1.2050   -2.0046 H   0  0
    2.5476    1.0142    4.0455 H   0  0
   13.7744    0.8654    0.0140 H   0  0
    5.0062    0.1777    3.0182 H   0  0
   10.5880    2.9933   -0.3612 H   0  0
    1.4388    0.5718    1.1996 H   0  0
   11.5630    0.2030    1.5428 H   0  0
    3.5753   -0.0883    0.3019 H   0  0
    5.0666   -3.0952    5.8397 H   0  0
    3.6374   -4.1855    5.8326 H   0  0
    3.4872   -2.5113    6.4030 H   0  0
   -1.6262    0.3144    4.9834 H   0  0
   -0.8732   -0.5381    6.3753 H   0  0
   -0.9250   -1.3035    4.7745 H   0  0
    7.2285   -3.3483    2.3059 H   0  0
    7.9668   -2.5133    0.8956 H   0  0
    6.3450   -3.2240    0.7707 H   0  0
    1.6211    4.8996    5.4697 H   0  0
    1.8110    6.2612    4.3116 H   0  0
    2.9960    4.9400    4.3468 H   0  0
   11.0998   -2.7670   -0.3948 H   0  0
    9.9191   -1.4315   -0.2199 H   0  0
   10.8521   -1.9931    1.1923 H   0  0
    4.3989    2.1910   -0.8338 H   0  0
    4.8166    0.5581   -1.3776 H   0  0
   10.0663    1.0613   -2.6751 H   0  0
   10.2234    2.8108   -2.8466 H   0  0
    0.1212    2.1669    2.5500 H   0  0
    1.0115    2.9872    1.2412 H   0  0
   13.8388    2.9940   -1.5962 H   0  0
   13.1906    1.9223    1.9181 H   0  0
  1  2  2  0
  1 26  1  0
  2 21  1  0
  2 24  1  0
  3 16  1  0
  3 27  2  0
  3 35  1  0
  4 17  1  0
  4 28  2  0
  4 36  1  0
  5 18  1  0
  5 29  2  0
  5 37  1  0
  6 19  1  0
  6 30  2  0
  6 38  1  0
  7  9  1  0
  7 11  1  0
  7 35  1  0
  8 10  1  0
  8 12  1  0
  8 33  1  0
  9 13  1  0
  9 36  1  0
 10 14  1  0
 10 34  1  0
 11 15  1  0
 11 37  1  0
 12 22  1  0
 12 31  1  0
 13 23  1  0
 13 32  1  0
 14 31  1  0
 14 39  1  0
 15 32  1  0
 15 40  1  0
 20 39  1  0
 21 40  1  0
 22 26  1  0
 23 38  1  0
 24 25  2  0
 25 26  1  0
  1 41  1  0
  7 42  1  0
  8 43  1  0
  9 44  1  0
 10 45  1  0
 11 46  1  0
 12 47  1  0
 13 48  1  0
 14 49  1  0
 15 50  1  0
 16 51  1  0
 16 52  1  0
 16 53  1  0
 17 54  1  0
 17 55  1  0
 17 56  1  0
 18 57  1  0
 18 58  1  0
 18 59  1  0
 19 60  1  0
 19 61  1  0
 19 62  1  0
 20 63  1  0
 20 64  1  0
 20 65  1  0
 21 66  1  0
 21 67  1  0
 22 68  1  0
 22 69  1  0
 23 70  1  0
 23 71  1  0
 33 72  1  0
 34 73  1  0
M  END
> <Name>
BR010262

$$$$
BR010263
  SciTegic05062102053D

 73 75  0  0  1  0            999 V2000
    7.6852    1.8521   -4.4292 C   0  0
    7.8980    0.7964   -3.5787 C   0  0
    1.4284    1.4103    1.6332 C   0  0
    1.7696   -2.3297    0.5300 C   0  0
    3.9769    2.8058   -2.3143 C   0  0
    4.9256   -4.2500    2.8454 C   0  0
    3.3751    0.6725    0.5152 C   0  0  1  0  0  0
    7.2940    2.9036   -8.9435 C   0  0  1  0  0  0
    3.5345   -0.8007    0.8922 C   0  0  2  0  0  0
    5.8393    3.2289   -9.2170 C   0  0  2  0  0  0
    4.0443    0.9716   -0.8260 C   0  0  2  0  0  0
    7.1979    2.1436   -7.6307 C   0  0  1  0  0  0
    5.0134   -1.1967    0.8218 C   0  0  1  0  0  0
    5.3435    3.5647   -7.8181 C   0  0  1  0  0  0
    5.4819    0.4473   -0.8430 C   0  0  1  0  0  0
   -0.0232    1.7175    1.4222 C   0  0
    1.0615   -3.1003   -0.5428 C   0  0
    3.9969    4.3036   -2.3618 C   0  0
    4.3988   -4.3972    4.2406 C   0  0
    5.1466    5.3101   -6.2569 C   0  0
    7.4141    0.6046   -2.1714 C   0  0
    8.4606    2.2295   -6.7918 C   0  0
    5.2476   -2.6738    1.1145 C   0  0
    8.6624   -0.1497   -4.2031 N   0  0
    8.9355    0.2888   -5.4272 N   0  0
    8.3488    1.4893   -5.5606 N   0  0
    2.0028    1.5201    2.7080 O   0  0
    1.4723   -2.3750    1.7160 O   0  0
    3.9015    2.0898   -3.3037 O   0  0
    5.4069   -5.1675    2.1944 O   0  0
    6.0987    2.7338   -6.9142 O   0  0
    5.5262   -0.9347   -0.4905 O   0  0
    7.8961    2.1306   -9.9597 O   0  0
    5.1639    2.0690   -9.6929 O   0  0
    1.9892    0.9987    0.4574 O   0  0
    2.7729   -1.5899   -0.0243 O   0  0
    4.0542    2.3859   -1.0177 O   0  0
    4.7864   -2.9540    2.4241 O   0  0
    5.5914    4.9405   -7.5545 O   0  0
    5.9952    0.6262   -2.1625 O   0  0
    7.1453    2.7836   -4.3341 H   0  0
    3.8171    1.3012    1.2986 H   0  0
    7.8652    3.8317   -8.8174 H   0  0
    3.1202   -0.9749    1.8919 H   0  0
    5.7188    4.0318   -9.9503 H   0  0
    3.4584    0.5422   -1.6478 H   0  0
    6.9593    1.0863   -7.8040 H   0  0
    5.5908   -0.6076    1.5461 H   0  0
    4.2769    3.3561   -7.6854 H   0  0
    6.1170    1.0279   -0.1620 H   0  0
   -0.1434    2.7671    1.1428 H   0  0
   -0.5858    1.4940    2.3321 H   0  0
   -0.4116    1.0943    0.6114 H   0  0
    0.2351   -2.5070   -0.9416 H   0  0
    0.6962   -4.0480   -0.1391 H   0  0
    1.7606   -3.3155   -1.3562 H   0  0
    2.9763    4.6901   -2.3069 H   0  0
    4.4874    4.6391   -3.2791 H   0  0
    4.5611    4.6860   -1.5062 H   0  0
    5.1993   -4.2113    4.9609 H   0  0
    3.9829   -5.3987    4.3764 H   0  0
    3.6032   -3.6650    4.4070 H   0  0
    5.3521    6.3701   -6.0886 H   0  0
    5.6626    4.7046   -5.5076 H   0  0
    4.0705    5.1343   -6.1864 H   0  0
    7.7593   -0.3524   -1.7655 H   0  0
    7.7896    1.4013   -1.5203 H   0  0
    8.6868    3.2717   -6.5396 H   0  0
    9.3200    1.8351   -7.3457 H   0  0
    6.3120   -2.9029    1.0518 H   0  0
    4.6977   -3.2882    0.4008 H   0  0
    7.8416    2.6444  -10.7850 H   0  0
    4.2432    2.3300   -9.8514 H   0  0
  1  2  2  0
  1 26  1  0
  2 21  1  0
  2 24  1  0
  3 16  1  0
  3 27  2  0
  3 35  1  0
  4 17  1  0
  4 28  2  0
  4 36  1  0
  5 18  1  0
  5 29  2  0
  5 37  1  0
  6 19  1  0
  6 30  2  0
  6 38  1  0
  7  9  1  0
  7 11  1  0
  7 35  1  0
  8 10  1  0
  8 12  1  0
  8 33  1  0
  9 13  1  0
  9 36  1  0
 10 14  1  0
 10 34  1  0
 11 15  1  0
 11 37  1  0
 12 22  1  0
 12 31  1  0
 13 23  1  0
 13 32  1  0
 14 31  1  0
 14 39  1  0
 15 32  1  0
 15 40  1  0
 20 39  1  0
 21 40  1  0
 22 26  1  0
 23 38  1  0
 24 25  2  0
 25 26  1  0
  1 41  1  0
  7 42  1  0
  8 43  1  0
  9 44  1  0
 10 45  1  0
 11 46  1  0
 12 47  1  0
 13 48  1  0
 14 49  1  0
 15 50  1  0
 16 51  1  0
 16 52  1  0
 16 53  1  0
 17 54  1  0
 17 55  1  0
 17 56  1  0
 18 57  1  0
 18 58  1  0
 18 59  1  0
 19 60  1  0
 19 61  1  0
 19 62  1  0
 20 63  1  0
 20 64  1  0
 20 65  1  0
 21 66  1  0
 21 67  1  0
 22 68  1  0
 22 69  1  0
 23 70  1  0
 23 71  1  0
 33 72  1  0
 34 73  1  0
M  END
> <Name>
BR010263

$$$$
BR010264
  SciTegic05062102053D

 73 75  0  0  1  0            999 V2000
    0.3648    1.7815   -9.5949 C   0  0
    1.6571    1.7264   -9.1366 C   0  0
    3.5759    2.6261   -2.6517 C   0  0
    0.3431    4.9099   -2.4913 C   0  0
    5.6559    5.3154   -5.4669 C   0  0
   -1.3139    7.0131   -7.9739 C   0  0
    2.5488    3.7770   -4.4411 C   0  0  1  0  0  0
   -3.6069   -0.6387   -9.6678 C   0  0  1  0  0  0
    1.4360    4.8170   -4.5839 C   0  0  1  0  0  0
   -4.5889    0.0584   -8.7477 C   0  0  2  0  0  0
    3.6684    4.0375   -5.4501 C   0  0  1  0  0  0
   -2.2813   -0.0651   -9.1946 C   0  0  1  0  0  0
    0.9788    4.9017   -6.0456 C   0  0  1  0  0  0
   -3.9890    1.4552   -8.6789 C   0  0  1  0  0  0
    3.1112    4.1639   -6.8672 C   0  0  2  0  0  0
    4.1193    2.8159   -1.2679 C   0  0
   -0.8795    4.4395   -1.7634 C   0  0
    6.2182    6.6499   -5.0809 C   0  0
   -1.6080    6.9247   -9.4408 C   0  0
   -3.9492    3.5441   -9.7548 C   0  0
    2.5671    2.8510   -8.7386 C   0  0
   -1.2096   -0.0598  -10.2703 C   0  0
   -0.0338    6.0250   -6.2509 C   0  0
    2.0659    0.4233   -9.0705 N   0  0
    1.0591   -0.3416   -9.4783 N   0  0
    0.0402    0.4747   -9.7924 N   0  0
    3.5731    1.5565   -3.2459 O   0  0
    1.2130    5.6088   -1.9893 O   0  0
    6.3062    4.4257   -5.9983 O   0  0
   -1.8239    7.8317   -7.2210 O   0  0
   -2.5615    1.2846   -8.7827 O   0  0
    2.0821    5.1581   -6.9184 O   0  0
   -3.6424   -2.0460   -9.5627 O   0  0
   -4.5497   -0.5378   -7.4549 O   0  0
    3.0977    3.8141   -3.1265 O   0  0
    0.3249    4.4416   -3.7743 O   0  0
    4.3334    5.2622   -5.1352 O   0  0
   -0.4032    6.0535   -7.6172 O   0  0
   -4.4789    2.2260   -9.7696 O   0  0
    2.6610    2.8924   -7.3221 O   0  0
   -0.3195    2.5957   -9.7874 H   0  0
    2.1387    2.7706   -4.5869 H   0  0
   -3.8069   -0.3550  -10.7085 H   0  0
    1.7922    5.7929   -4.2301 H   0  0
   -5.6161    0.0193   -9.1220 H   0  0
    4.4117    3.2350   -5.3912 H   0  0
   -1.9039   -0.6132   -8.3217 H   0  0
    0.4923    3.9648   -6.3435 H   0  0
   -4.2182    1.9688   -7.7395 H   0  0
    3.9065    4.5015   -7.5422 H   0  0
    5.1788    3.0787   -1.3183 H   0  0
    3.9758    1.9028   -0.6846 H   0  0
    3.5809    3.6310   -0.7756 H   0  0
   -1.6861    5.1668   -1.8845 H   0  0
   -0.6479    4.2932   -0.7053 H   0  0
   -1.2061    3.4836   -2.1831 H   0  0
    6.1098    7.3522   -5.9111 H   0  0
    7.2693    6.5428   -4.8013 H   0  0
    5.6675    7.0402   -4.2200 H   0  0
   -0.9133    7.5587   -9.9972 H   0  0
   -2.6413    7.2257   -9.6307 H   0  0
   -1.4801    5.8908   -9.7746 H   0  0
   -4.3454    4.1064  -10.6038 H   0  0
   -2.8585    3.5001   -9.8103 H   0  0
   -4.2452    4.0358   -8.8251 H   0  0
    3.5689    2.7118   -9.1591 H   0  0
    2.1803    3.8096   -9.1011 H   0  0
   -1.5275    0.5418  -11.1294 H   0  0
   -1.0242   -1.0762  -10.6358 H   0  0
    0.4120    6.9811   -5.9776 H   0  0
   -0.9187    5.8434   -5.6415 H   0  0
   -4.5438   -2.3311   -9.7954 H   0  0
   -5.1920   -0.0579   -6.9090 H   0  0
  1  2  2  0
  1 26  1  0
  2 21  1  0
  2 24  1  0
  3 16  1  0
  3 27  2  0
  3 35  1  0
  4 17  1  0
  4 28  2  0
  4 36  1  0
  5 18  1  0
  5 29  2  0
  5 37  1  0
  6 19  1  0
  6 30  2  0
  6 38  1  0
  7  9  1  0
  7 11  1  0
  7 35  1  0
  8 10  1  0
  8 12  1  0
  8 33  1  0
  9 13  1  0
  9 36  1  0
 10 14  1  0
 10 34  1  0
 11 15  1  0
 11 37  1  0
 12 22  1  0
 12 31  1  0
 13 23  1  0
 13 32  1  0
 14 31  1  0
 14 39  1  0
 15 32  1  0
 15 40  1  0
 20 39  1  0
 21 40  1  0
 22 26  1  0
 23 38  1  0
 24 25  2  0
 25 26  1  0
  1 41  1  0
  7 42  1  0
  8 43  1  0
  9 44  1  0
 10 45  1  0
 11 46  1  0
 12 47  1  0
 13 48  1  0
 14 49  1  0
 15 50  1  0
 16 51  1  0
 16 52  1  0
 16 53  1  0
 17 54  1  0
 17 55  1  0
 17 56  1  0
 18 57  1  0
 18 58  1  0
 18 59  1  0
 19 60  1  0
 19 61  1  0
 19 62  1  0
 20 63  1  0
 20 64  1  0
 20 65  1  0
 21 66  1  0
 21 67  1  0
 22 68  1  0
 22 69  1  0
 23 70  1  0
 23 71  1  0
 33 72  1  0
 34 73  1  0
M  END
> <Name>
BR010264

$$$$
BR010265
  SciTegic05062102053D

 62 65  0  0  1  0            999 V2000
    1.6911   -2.6071   -1.1357 C   0  0
    1.4705   -3.7603   -1.8460 C   0  0
    2.4350    3.2114   -0.9935 C   0  0
    1.6397    4.2505   -0.7106 C   0  0
    2.2424    5.4452   -0.0619 C   0  0
    4.4373    4.2640   -0.1076 C   0  0
    3.1168   -9.1485    0.5120 C   0  0  1  0  0  0
    2.2891   -9.0252    1.7914 C   0  0  1  0  0  0
    4.5748   -0.3599   -0.8218 C   0  0  1  0  0  0
    4.4664    0.9114   -0.0066 C   0  0  2  0  0  0
    3.3104   -7.7867   -0.1553 C   0  0  2  0  0  0
    3.7710   -0.0100   -2.0668 C   0  0  1  0  0  0
    1.0139   -8.2178    1.5375 C   0  0  1  0  0  0
    4.5296    1.9819   -1.0824 C   0  0  2  0  0  0
    1.9857   -7.0334   -0.2760 C   0  0  1  0  0  0
    0.1753    4.2772   -1.0100 C   0  0
    1.1153   -5.1278   -1.3408 C   0  0
    2.2816   -0.2918   -1.9206 C   0  0
    0.2223   -7.9710    2.8181 C   0  0
    1.6177   -3.5120   -3.1825 N   0  0
    1.9268   -2.2280   -3.3275 N   0  0
    1.9706   -1.6874   -2.0991 N   0  0
    3.6032    5.3482    0.1867 N   0  0
    3.7986    3.1637   -0.7235 N   0  0
    1.5685    6.4315    0.2234 O   0  0
    5.6398    4.2940    0.1622 O   0  0
    3.9431    1.4107   -2.2632 O   0  0
    1.3469   -6.9387    0.9950 O   0  0
    4.3945   -9.6914    0.8493 O   0  0
    1.9646  -10.3399    2.2360 O   0  0
    5.9281   -0.5792   -1.2192 O   0  0
    5.5072    1.0311    0.9413 O   0  0
    3.8588   -7.9980   -1.4555 O   0  0
   -0.9293   -7.2125    2.4969 O   0  0
    2.2701   -5.7265   -0.7735 O   0  0
    1.6735   -2.3711   -0.0810 H   0  0
    2.0351    2.3198   -1.4668 H   0  0
    2.6506   -9.8608   -0.1803 H   0  0
    2.9029   -8.5511    2.5681 H   0  0
    4.2291   -1.2523   -0.2935 H   0  0
    3.5075    0.9349    0.5238 H   0  0
    4.0426   -7.1952    0.4088 H   0  0
    4.1530   -0.5166   -2.9596 H   0  0
    0.3557   -8.7484    0.8369 H   0  0
    5.5573    2.2873   -1.3113 H   0  0
    1.3212   -7.5228   -0.9993 H   0  0
   -0.3812    3.8825   -0.1608 H   0  0
   -0.0319    3.6701   -1.8908 H   0  0
   -0.1419    5.3013   -1.2048 H   0  0
    0.3307   -5.0722   -0.5784 H   0  0
    0.7473   -5.7591   -2.1567 H   0  0
    1.7062    0.2792   -2.6581 H   0  0
    1.9272    0.0087   -0.9281 H   0  0
    0.8319   -7.4161    3.5312 H   0  0
   -0.0828   -8.9214    3.2561 H   0  0
    4.0429    6.1501    0.6299 H   0  0
    4.7983   -9.0708    1.4740 H   0  0
    1.4570  -10.7555    1.5218 H   0  0
    5.9329   -1.4006   -1.7334 H   0  0
    5.3666    1.8669    1.4198 H   0  0
    3.2183   -8.5420   -1.9385 H   0  0
   -1.4165   -7.0681    3.3261 H   0  0
  1  2  2  0
  1 22  1  0
  2 17  1  0
  2 20  1  0
  3  4  2  0
  3 24  1  0
  4  5  1  0
  4 16  1  0
  5 23  1  0
  5 25  2  0
  6 23  1  0
  6 24  1  0
  6 26  2  0
  7  8  1  0
  7 11  1  0
  7 29  1  0
  8 13  1  0
  8 30  1  0
  9 10  1  0
  9 12  1  0
  9 31  1  0
 10 14  1  0
 10 32  1  0
 11 15  1  0
 11 33  1  0
 12 18  1  0
 12 27  1  0
 13 19  1  0
 13 28  1  0
 14 24  1  0
 14 27  1  0
 15 28  1  0
 15 35  1  0
 17 35  1  0
 18 22  1  0
 19 34  1  0
 20 21  2  0
 21 22  1  0
  1 36  1  0
  3 37  1  0
  7 38  1  0
  8 39  1  0
  9 40  1  0
 10 41  1  0
 11 42  1  0
 12 43  1  0
 13 44  1  0
 14 45  1  0
 15 46  1  0
 16 47  1  0
 16 48  1  0
 16 49  1  0
 17 50  1  0
 17 51  1  0
 18 52  1  0
 18 53  1  0
 19 54  1  0
 19 55  1  0
 23 56  1  0
 29 57  1  0
 30 58  1  0
 31 59  1  0
 32 60  1  0
 33 61  1  0
 34 62  1  0
M  END
> <Name>
BR010265

$$$$
BR010266
  SciTegic05062102053D

 62 65  0  0  1  0            999 V2000
    1.9641   -2.7248   -1.3683 C   0  0
    2.1741   -3.8469   -2.1299 C   0  0
    1.4907    3.1074   -0.9330 C   0  0
    0.4615    3.9610   -0.8675 C   0  0
    0.6204    5.1981   -0.0576 C   0  0
    2.9321    4.4450    0.4937 C   0  0
    4.1250   -8.9896    0.5117 C   0  0  1  0  0  0
    3.0029   -9.0792    1.5465 C   0  0  2  0  0  0
    4.1581   -0.0147   -0.2257 C   0  0  1  0  0  0
    3.5866    1.1556    0.5464 C   0  0  2  0  0  0
    4.2376   -7.5747   -0.0551 C   0  0  2  0  0  0
    3.6700    0.2675   -1.6401 C   0  0  1  0  0  0
    1.7017   -8.5326    0.9488 C   0  0  1  0  0  0
    3.7290    2.2916   -0.4519 C   0  0  2  0  0  0
    2.8726   -7.0711   -0.5299 C   0  0  1  0  0  0
   -0.8426    3.7398   -1.5640 C   0  0
    1.9691   -5.2880   -1.7656 C   0  0
    2.2816   -0.2918   -1.9206 C   0  0
    0.5490   -8.5206    1.9456 C   0  0
    2.6268   -3.4838   -3.3680 N   0  0
    2.7069   -2.1580   -3.4006 N   0  0
    2.3093   -1.7049   -2.2007 N   0  0
    1.8544    5.3350    0.5600 N   0  0
    2.7120    3.2917   -0.2933 N   0  0
   -0.2847    6.0220    0.0433 O   0  0
    3.9864    4.6760    1.0894 O   0  0
    3.6081    1.7058   -1.7584 O   0  0
    1.8977   -7.1839    0.5059 O   0  0
    5.3564   -9.3779    1.1144 O   0  0
    3.3767   -8.3087    2.6909 O   0  0
    5.5842    0.0457   -0.2323 O   0  0
    4.2869    1.3980    1.7493 O   0  0
    5.1414   -7.6036   -1.1594 O   0  0
   -0.6694   -8.4456    1.2271 O   0  0
    3.0205   -5.7028   -0.9076 O   0  0
    1.6154   -2.5697   -0.3571 H   0  0
    1.4163    2.1926   -1.5131 H   0  0
    3.9312   -9.7006   -0.3015 H   0  0
    2.8863  -10.1172    1.8786 H   0  0
    3.8632   -0.9897    0.1709 H   0  0
    2.5344    0.9663    0.7879 H   0  0
    4.6689   -6.8982    0.6928 H   0  0
    4.3712   -0.0975   -2.3983 H   0  0
    1.4035   -9.1432    0.0867 H   0  0
    4.7001    2.7951   -0.3796 H   0  0
    2.5406   -7.6230   -1.4183 H   0  0
   -1.5204    3.1919   -0.9105 H   0  0
   -0.6804    3.1675   -2.4769 H   0  0
   -1.2886    4.6994   -1.8236 H   0  0
    1.0120   -5.4300   -1.2522 H   0  0
    1.9670   -5.9179   -2.6617 H   0  0
    1.8279    0.2138   -2.7805 H   0  0
    1.6197   -0.1309   -1.0622 H   0  0
    0.6324   -7.6543    2.6028 H   0  0
    0.5596   -9.4345    2.5405 H   0  0
    1.9921    6.1712    1.1209 H   0  0
    5.2389  -10.2907    1.4202 H   0  0
    2.6466   -8.3878    3.3224 H   0  0
    5.8886   -0.7233   -0.7374 H   0  0
    3.8615    2.1587    2.1824 H   0  0
    4.7627   -8.2165   -1.8076 H   0  0
   -1.3871   -8.4393    1.8831 H   0  0
  1  2  2  0
  1 22  1  0
  2 17  1  0
  2 20  1  0
  3  4  2  0
  3 24  1  0
  4  5  1  0
  4 16  1  0
  5 23  1  0
  5 25  2  0
  6 23  1  0
  6 24  1  0
  6 26  2  0
  7  8  1  0
  7 11  1  0
  7 29  1  0
  8 13  1  0
  8 30  1  0
  9 10  1  0
  9 12  1  0
  9 31  1  0
 10 14  1  0
 10 32  1  0
 11 15  1  0
 11 33  1  0
 12 18  1  0
 12 27  1  0
 13 19  1  0
 13 28  1  0
 14 24  1  0
 14 27  1  0
 15 28  1  0
 15 35  1  0
 17 35  1  0
 18 22  1  0
 19 34  1  0
 20 21  2  0
 21 22  1  0
  1 36  1  0
  3 37  1  0
  7 38  1  0
  8 39  1  0
  9 40  1  0
 10 41  1  0
 11 42  1  0
 12 43  1  0
 13 44  1  0
 14 45  1  0
 15 46  1  0
 16 47  1  0
 16 48  1  0
 16 49  1  0
 17 50  1  0
 17 51  1  0
 18 52  1  0
 18 53  1  0
 19 54  1  0
 19 55  1  0
 23 56  1  0
 29 57  1  0
 30 58  1  0
 31 59  1  0
 32 60  1  0
 33 61  1  0
 34 62  1  0
M  END
> <Name>
BR010266

$$$$
BR010267
  SciTegic05062102053D

 62 65  0  0  1  0            999 V2000
   -0.0876    0.2785   -1.2986 C   0  0
   -1.2774   -0.1584   -1.8245 C   0  0
    5.7568    0.6984   -1.6072 C   0  0
    6.6075    1.6547   -1.9994 C   0  0
    7.9184    1.7620   -1.3053 C   0  0
    7.2344   -0.1691    0.1152 C   0  0
   -4.6972    3.3427   -3.7566 C   0  0  1  0  0  0
   -4.6946    4.3304   -2.5883 C   0  0  1  0  0  0
    2.7322   -1.4351    0.3066 C   0  0  1  0  0  0
    3.9692   -0.6590    0.7064 C   0  0  2  0  0  0
   -5.2612    1.9890   -3.3218 C   0  0  1  0  0  0
    2.8727   -1.5009   -1.2081 C   0  0  1  0  0  0
   -4.0016    3.7048   -1.3713 C   0  0  1  0  0  0
    5.0032   -1.1879   -0.2725 C   0  0  2  0  0  0
   -4.5495    1.4742   -2.0717 C   0  0  2  0  0  0
    6.3128    2.6245   -3.0983 C   0  0
   -2.6772    0.2086   -1.4277 C   0  0
    2.2816   -0.2918   -1.9206 C   0  0
   -4.1009    4.6081   -0.1452 C   0  0
   -1.0343   -1.0395   -2.8414 N   0  0
    0.2823   -1.1666   -2.9654 N   0  0
    0.8481   -0.3757   -2.0393 N   0  0
    8.1212    0.8316   -0.2973 N   0  0
    6.0088   -0.2136   -0.5875 N   0  0
    8.7436    2.6165   -1.6169 O   0  0
    7.5277   -0.9429    1.0290 O   0  0
    4.2923   -1.5302   -1.4734 O   0  0
   -4.5959    2.4509   -1.0258 O   0  0
   -5.4873    3.8457   -4.8306 O   0  0
   -3.9906    5.5114   -2.9632 O   0  0
    2.7989   -2.7680    0.8129 O   0  0
    4.3312   -0.8835    2.0536 O   0  0
   -6.6493    2.1169   -3.0085 O   0  0
   -3.4534    3.9681    0.9388 O   0  0
   -3.2179    1.0922   -2.3993 O   0  0
    0.1635    0.9647   -0.5022 H   0  0
    4.7895    0.5857   -2.0872 H   0  0
   -3.6781    3.2187   -4.1415 H   0  0
   -5.7248    4.6193   -2.3441 H   0  0
    1.7989   -0.9869    0.6575 H   0  0
    3.7990    0.4146    0.5657 H   0  0
   -5.1746    1.2720   -4.1456 H   0  0
    2.4392   -2.4175   -1.6225 H   0  0
   -2.9354    3.5541   -1.5805 H   0  0
    5.5164   -2.0819    0.1006 H   0  0
   -5.0719    0.5870   -1.6948 H   0  0
    5.8278    3.5093   -2.6879 H   0  0
    5.6551    2.1604   -3.8327 H   0  0
    7.2403    2.9166   -3.5899 H   0  0
   -3.3119   -0.6816   -1.3619 H   0  0
   -2.6863    0.7013   -0.4494 H   0  0
    2.6988   -0.1959   -2.9295 H   0  0
    2.5221    0.6307   -1.3802 H   0  0
   -5.1474    4.7764    0.1081 H   0  0
   -3.6123    5.5614   -0.3455 H   0  0
    9.0087    0.8808    0.1953 H   0  0
   -5.4502    3.1806   -5.5352 H   0  0
   -3.0877    5.2357   -3.1847 H   0  0
    1.9859   -3.2108    0.5264 H   0  0
    3.5817   -0.5982    2.6050 H   0  0
   -6.9508    1.2358   -2.7417 H   0  0
   -3.5290    4.5601    1.7067 H   0  0
  1  2  2  0
  1 22  1  0
  2 17  1  0
  2 20  1  0
  3  4  2  0
  3 24  1  0
  4  5  1  0
  4 16  1  0
  5 23  1  0
  5 25  2  0
  6 23  1  0
  6 24  1  0
  6 26  2  0
  7  8  1  0
  7 11  1  0
  7 29  1  0
  8 13  1  0
  8 30  1  0
  9 10  1  0
  9 12  1  0
  9 31  1  0
 10 14  1  0
 10 32  1  0
 11 15  1  0
 11 33  1  0
 12 18  1  0
 12 27  1  0
 13 19  1  0
 13 28  1  0
 14 24  1  0
 14 27  1  0
 15 28  1  0
 15 35  1  0
 17 35  1  0
 18 22  1  0
 19 34  1  0
 20 21  2  0
 21 22  1  0
  1 36  1  0
  3 37  1  0
  7 38  1  0
  8 39  1  0
  9 40  1  0
 10 41  1  0
 11 42  1  0
 12 43  1  0
 13 44  1  0
 14 45  1  0
 15 46  1  0
 16 47  1  0
 16 48  1  0
 16 49  1  0
 17 50  1  0
 17 51  1  0
 18 52  1  0
 18 53  1  0
 19 54  1  0
 19 55  1  0
 23 56  1  0
 29 57  1  0
 30 58  1  0
 31 59  1  0
 32 60  1  0
 33 61  1  0
 34 62  1  0
M  END
> <Name>
BR010267

$$$$
BR010268
  SciTegic05062102053D

 53 55  0  0  1  0            999 V2000
    2.9007    2.1658   -1.3758 C   0  0
    4.2508    2.2559   -1.1471 C   0  0
    8.5266   -1.7292   -2.9191 C   0  0  1  0  0  0
    9.6407   -1.1779   -2.0291 C   0  0  1  0  0  0
   -0.9550    4.6984   -0.8267 C   0  0  1  0  0  0
    7.3956   -0.7137   -3.0829 C   0  0  2  0  0  0
   -1.2586    5.9046    0.0391 C   0  0  2  0  0  0
    0.5588    4.6147   -0.7182 C   0  0  1  0  0  0
    9.0656   -0.6026   -0.7326 C   0  0  1  0  0  0
   -0.1054    6.8279   -0.3255 C   0  0  1  0  0  0
    6.9629   -0.1408   -1.7333 C   0  0  1  0  0  0
    0.5855    8.4622   -1.8665 C   0  0
    5.2301    1.1643   -0.8295 C   0  0
    1.2122    3.9495   -1.9166 C   0  0
   10.1347    0.0652    0.1268 C   0  0
    4.6484    3.5599   -1.2512 N   0  0
    3.5775    4.2915   -1.5393 N   0  0
    2.5306    3.4537   -1.6135 N   0  0
    1.0205    5.9727   -0.6058 O   0  0
    8.0850    0.3918   -1.0335 O   0  0
    9.0780   -2.0284   -4.2026 O   0  0
   10.5446   -2.2420   -1.7427 O   0  0
   -1.5838    3.5157   -0.3808 O   0  0
    6.2887   -1.3704   -3.6989 O   0  0
   -1.1643    5.5501    1.4152 O   0  0
    9.5192    0.5769    1.2948 O   0  0
   -0.4590    7.5800   -1.4801 O   0  0
    6.0121    0.8937   -1.9824 O   0  0
    2.2049    1.3389   -1.3909 H   0  0
    8.1466   -2.6767   -2.5167 H   0  0
   10.1934   -0.4098   -2.5853 H   0  0
   -1.2628    4.8962   -1.8610 H   0  0
    7.7100    0.0890   -3.7619 H   0  0
   -2.2536    6.3181   -0.1502 H   0  0
    0.8597    4.0793    0.1915 H   0  0
    8.6038   -1.3967   -0.1311 H   0  0
    0.1618    7.5127    0.4859 H   0  0
    6.4642   -0.9057   -1.1246 H   0  0
    0.2807    9.0223   -2.7539 H   0  0
    1.4900    7.8866   -2.0787 H   0  0
    0.7830    9.1591   -1.0486 H   0  0
    5.8933    1.4594   -0.0093 H   0  0
    4.7074    0.2503   -0.5274 H   0  0
    1.3005    4.6557   -2.7499 H   0  0
    0.6070    3.1061   -2.2678 H   0  0
   10.5976    0.8836   -0.4246 H   0  0
   10.8941   -0.6639    0.4095 H   0  0
    9.4289   -1.1948   -4.5498 H   0  0
   10.0302   -2.9262   -1.2870 H   0  0
   -2.5441    3.6755   -0.3947 H   0  0
    6.0335   -2.0932   -3.1057 H   0  0
   -1.3664    6.3520    1.9223 H   0  0
   10.2179    0.9965    1.8252 H   0  0
  1  2  2  0
  1 18  1  0
  2 13  1  0
  2 16  1  0
  3  4  1  0
  3  6  1  0
  3 21  1  0
  4  9  1  0
  4 22  1  0
  5  7  1  0
  5  8  1  0
  5 23  1  0
  6 11  1  0
  6 24  1  0
  7 10  1  0
  7 25  1  0
  8 14  1  0
  8 19  1  0
  9 15  1  0
  9 20  1  0
 10 19  1  0
 10 27  1  0
 11 20  1  0
 11 28  1  0
 12 27  1  0
 13 28  1  0
 14 18  1  0
 15 26  1  0
 16 17  2  0
 17 18  1  0
  1 29  1  0
  3 30  1  0
  4 31  1  0
  5 32  1  0
  6 33  1  0
  7 34  1  0
  8 35  1  0
  9 36  1  0
 10 37  1  0
 11 38  1  0
 12 39  1  0
 12 40  1  0
 12 41  1  0
 13 42  1  0
 13 43  1  0
 14 44  1  0
 14 45  1  0
 15 46  1  0
 15 47  1  0
 21 48  1  0
 22 49  1  0
 23 50  1  0
 24 51  1  0
 25 52  1  0
 26 53  1  0
M  END
> <Name>
BR010268

$$$$
BR010269
  SciTegic05062102053D

 53 55  0  0  1  0            999 V2000
    2.7176    2.0871   -2.6850 C   0  0
    4.0828    1.9618   -2.6252 C   0  0
    7.7110   -0.5434   -6.8433 C   0  0  1  0  0  0
    8.9646   -0.5998   -5.9698 C   0  0  2  0  0  0
   -0.7584    4.0635   -0.3201 C   0  0  1  0  0  0
    6.6929    0.4473   -6.2794 C   0  0  2  0  0  0
   -0.8486    4.5836    1.1005 C   0  0  2  0  0  0
    0.7388    3.8545   -0.4770 C   0  0  1  0  0  0
    8.5695   -0.8608   -4.5122 C   0  0  1  0  0  0
    0.3722    5.4899    1.1614 C   0  0  1  0  0  0
    6.4398    0.1778   -4.7944 C   0  0  1  0  0  0
    1.1250    7.6703    0.7117 C   0  0
    4.9495    0.8324   -3.0993 C   0  0
    1.2122    3.9495   -1.9166 C   0  0
    9.7623   -0.8590   -3.5637 C   0  0
    4.6210    3.0738   -2.0393 N   0  0
    3.6238    3.8948   -1.7288 N   0  0
    2.4833    3.3013   -2.1166 N   0  0
    1.3641    4.8853    0.3081 O   0  0
    7.6648    0.1558   -4.0629 O   0  0
    8.0752   -0.1732   -8.1702 O   0  0
    9.6487    0.6509   -6.0744 O   0  0
   -1.4840    2.8704   -0.5273 O   0  0
    5.4715    0.2968   -7.0024 O   0  0
   -0.6872    3.5095    2.0216 O   0  0
    9.3950   -1.5339   -2.3738 O   0  0
    0.0184    6.7799    0.6771 O   0  0
    5.6000    1.2200   -4.2994 O   0  0
    1.9306    1.4509   -3.0646 H   0  0
    7.2615   -1.5427   -6.9043 H   0  0
    9.6443   -1.3733   -6.3454 H   0  0
   -1.1224    4.8267   -1.0192 H   0  0
    7.0344    1.4771   -6.4404 H   0  0
   -1.8001    5.0829    1.3057 H   0  0
    1.0464    2.8840   -0.0666 H   0  0
    8.0685   -1.8342   -4.4315 H   0  0
    0.7816    5.5816    2.1727 H   0  0
    5.9038   -0.7697   -4.6556 H   0  0
    0.8183    8.6487    0.3339 H   0  0
    1.9359    7.2690    0.0987 H   0  0
    1.4674    7.7719    1.7442 H   0  0
    5.7060    0.5776   -2.3493 H   0  0
    4.3490   -0.0637   -3.2895 H   0  0
    1.3160    4.9972   -2.2208 H   0  0
    0.4862    3.4849   -2.5934 H   0  0
   10.0461    0.1660   -3.3223 H   0  0
   10.6062   -1.3744   -4.0234 H   0  0
    8.6891   -0.8533   -8.4884 H   0  0
   10.4335    0.5796   -5.5112 H   0  0
   -2.4170    3.0599   -0.3234 H   0  0
    5.1857   -0.6197   -6.8699 H   0  0
   -0.7528    3.8940    2.9097 H   0  0
   10.1702   -1.5193   -1.7870 H   0  0
  1  2  2  0
  1 18  1  0
  2 13  1  0
  2 16  1  0
  3  4  1  0
  3  6  1  0
  3 21  1  0
  4  9  1  0
  4 22  1  0
  5  7  1  0
  5  8  1  0
  5 23  1  0
  6 11  1  0
  6 24  1  0
  7 10  1  0
  7 25  1  0
  8 14  1  0
  8 19  1  0
  9 15  1  0
  9 20  1  0
 10 19  1  0
 10 27  1  0
 11 20  1  0
 11 28  1  0
 12 27  1  0
 13 28  1  0
 14 18  1  0
 15 26  1  0
 16 17  2  0
 17 18  1  0
  1 29  1  0
  3 30  1  0
  4 31  1  0
  5 32  1  0
  6 33  1  0
  7 34  1  0
  8 35  1  0
  9 36  1  0
 10 37  1  0
 11 38  1  0
 12 39  1  0
 12 40  1  0
 12 41  1  0
 13 42  1  0
 13 43  1  0
 14 44  1  0
 14 45  1  0
 15 46  1  0
 15 47  1  0
 21 48  1  0
 22 49  1  0
 23 50  1  0
 24 51  1  0
 25 52  1  0
 26 53  1  0
M  END
> <Name>
BR010269

$$$$
BR010270
  SciTegic05062102053D

 53 55  0  0  1  0            999 V2000
    1.4621    2.7605   -4.1187 C   0  0
    2.5429    2.6556   -4.9578 C   0  0
    2.1273    4.3064   -9.9366 C   0  0  1  0  0  0
    0.8109    3.6146  -10.2954 C   0  0  1  0  0  0
    0.5331    3.1997    0.4119 C   0  0  1  0  0  0
    3.2175    3.2765   -9.6357 C   0  0  1  0  0  0
    1.3708    2.9355    1.6469 C   0  0  2  0  0  0
    1.5788    3.1343   -0.6892 C   0  0  1  0  0  0
    0.4455    2.5861   -9.2177 C   0  0  1  0  0  0
    2.6338    3.7190    1.3204 C   0  0  1  0  0  0
    2.7423    2.2625   -8.5963 C   0  0  2  0  0  0
    3.6178    5.8489    1.4546 C   0  0
    2.6534    1.9376   -6.2706 C   0  0
    1.2122    3.9495   -1.9166 C   0  0
   -0.7895    1.7797   -9.6097 C   0  0
    3.6034    3.3372   -4.4284 N   0  0
    3.2130    3.8673   -3.2745 N   0  0
    1.9289    3.5202   -3.0905 N   0  0
    2.7918    3.6479   -0.1105 O   0  0
    1.5118    1.6568   -9.0072 O   0  0
    2.5623    5.1348  -11.0114 O   0  0
   -0.2304    4.5839  -10.3795 O   0  0
   -0.4970    2.2537    0.2204 O   0  0
    3.5489    2.5560  -10.8241 O   0  0
    1.6832    1.5488    1.7338 O   0  0
   -1.0628    0.8466   -8.5807 O   0  0
    2.4643    5.0688    1.7362 O   0  0
    2.6397    2.8911   -7.3232 O   0  0
    0.4510    2.3811   -4.1611 H   0  0
    1.9796    4.9609   -9.0694 H   0  0
    0.8997    3.1341  -11.2781 H   0  0
    0.0893    4.2013    0.4710 H   0  0
    4.1250    3.7886   -9.2977 H   0  0
    0.8680    3.2412    2.5691 H   0  0
    1.7639    2.0967   -0.9958 H   0  0
    0.2174    3.0945   -8.2729 H   0  0
    3.5264    3.3015    1.7977 H   0  0
    3.4777    1.4533   -8.5147 H   0  0
    3.4532    6.8770    1.7861 H   0  0
    3.8190    5.8288    0.3805 H   0  0
    4.4714    5.4278    1.9910 H   0  0
    3.5825    1.3598   -6.3242 H   0  0
    1.8171    1.2430   -6.4043 H   0  0
    1.4330    5.0108   -1.7556 H   0  0
    0.1398    3.8689   -2.1277 H   0  0
   -0.6038    1.2454  -10.5412 H   0  0
   -1.6444    2.4445   -9.7303 H   0  0
    3.3944    5.5426  -10.7259 H   0  0
   -0.2873    5.0039   -9.5074 H   0  0
   -1.0749    2.2925    1.0031 H   0  0
    4.2387    1.9228  -10.5756 H   0  0
    2.2166    1.4347    2.5359 H   0  0
   -1.8511    0.3456   -8.8513 H   0  0
  1  2  2  0
  1 18  1  0
  2 13  1  0
  2 16  1  0
  3  4  1  0
  3  6  1  0
  3 21  1  0
  4  9  1  0
  4 22  1  0
  5  7  1  0
  5  8  1  0
  5 23  1  0
  6 11  1  0
  6 24  1  0
  7 10  1  0
  7 25  1  0
  8 14  1  0
  8 19  1  0
  9 15  1  0
  9 20  1  0
 10 19  1  0
 10 27  1  0
 11 20  1  0
 11 28  1  0
 12 27  1  0
 13 28  1  0
 14 18  1  0
 15 26  1  0
 16 17  2  0
 17 18  1  0
  1 29  1  0
  3 30  1  0
  4 31  1  0
  5 32  1  0
  6 33  1  0
  7 34  1  0
  8 35  1  0
  9 36  1  0
 10 37  1  0
 11 38  1  0
 12 39  1  0
 12 40  1  0
 12 41  1  0
 13 42  1  0
 13 43  1  0
 14 44  1  0
 14 45  1  0
 15 46  1  0
 15 47  1  0
 21 48  1  0
 22 49  1  0
 23 50  1  0
 24 51  1  0
 25 52  1  0
 26 53  1  0
M  END
> <Name>
BR010270

$$$$
BR010271
  SciTegic05062102053D

 51 51  0  0  1  0            999 V2000
   -0.7715    3.1923    1.4647 C   0  0
   -0.8840    2.6760   -2.3205 C   0  0
   -0.6124    0.0182    3.6748 C   0  0
    1.1075   -2.8857   -4.0953 C   0  0
   -0.1465    1.2164    0.3294 C   0  0  2  0  0  0
   -0.3007    0.7306   -1.1125 C   0  0  2  0  0  0
   -0.3392    0.0754    1.3283 C   0  0  1  0  0  0
    0.5600   -0.5133   -1.3563 C   0  0  2  0  0  0
    0.4953   -1.1419    0.9334 C   0  0  1  0  0  0
   -1.8937    4.1735    1.6201 C   0  0
   -0.3241    3.7260   -3.2315 C   0  0
   -0.0840    0.6000    4.9508 C   0  0
    2.0424   -4.0570   -4.1051 C   0  0
    1.7953   -3.9130    0.4740 C   0  0
    0.3440   -1.1017   -2.7469 C   0  0
    0.1331   -2.2855    1.8048 N   0  0
    0.2953    3.2717    2.0585 O   0  0
   -2.0496    2.6411   -1.9499 O   0  0
   -1.5156   -0.8054    3.6196 O   0  0
    0.3912   -2.5729   -5.0367 O   0  0
    0.6757   -4.6412    2.7249 O   0  0
    2.4402   -2.8407    2.7630 O   0  0
    0.2236   -1.5306   -0.4097 O   0  0
   -1.1306    2.2234    0.5738 O   0  0
    0.0971    1.7881   -1.9813 O   0  0
    0.0647    0.5459    2.6129 O   0  0
    1.1806   -2.2348   -2.8920 O   0  0
    1.3040   -3.4794    2.1270 S   0  0
    0.8292    1.6982    0.4684 H   0  0
   -1.3599    0.5177   -1.3064 H   0  0
   -1.4052   -0.1787    1.3888 H   0  0
    1.6258   -0.2683   -1.2599 H   0  0
    1.5692   -0.9577    1.0604 H   0  0
   -1.7855    4.9794    0.8900 H   0  0
   -1.8988    4.5730    2.6374 H   0  0
   -2.8462    3.6664    1.4410 H   0  0
    0.0563    4.5639   -2.6421 H   0  0
   -1.0963    4.0634   -3.9275 H   0  0
    0.5027    3.3019   -3.8087 H   0  0
    0.7360   -0.0161    5.3278 H   0  0
   -0.8873    0.6662    5.6889 H   0  0
    0.2964    1.6077    4.7597 H   0  0
    3.0219   -3.7466   -4.4773 H   0  0
    1.6295   -4.8560   -4.7261 H   0  0
    2.1607   -4.4351   -3.0855 H   0  0
    2.5610   -4.6880    0.5344 H   0  0
    0.9186   -4.2825   -0.0601 H   0  0
    2.1919   -3.0207   -0.0126 H   0  0
    0.6015   -0.3641   -3.5072 H   0  0
   -0.6964   -1.4045   -2.8658 H   0  0
   -0.8375   -2.5942    1.6913 H   0  0
  1 10  1  0
  1 17  2  0
  1 24  1  0
  2 11  1  0
  2 18  2  0
  2 25  1  0
  3 12  1  0
  3 19  2  0
  3 26  1  0
  4 13  1  0
  4 20  2  0
  4 27  1  0
  5  6  1  0
  5  7  1  0
  5 24  1  0
  6  8  1  0
  6 25  1  0
  7  9  1  0
  7 26  1  0
  8 15  1  0
  8 23  1  0
  9 16  1  0
  9 23  1  0
 14 28  1  0
 15 27  1  0
 16 28  1  0
 21 28  2  0
 22 28  2  0
  5 29  1  0
  6 30  1  0
  7 31  1  0
  8 32  1  0
  9 33  1  0
 10 34  1  0
 10 35  1  0
 10 36  1  0
 11 37  1  0
 11 38  1  0
 11 39  1  0
 12 40  1  0
 12 41  1  0
 12 42  1  0
 13 43  1  0
 13 44  1  0
 13 45  1  0
 14 46  1  0
 14 47  1  0
 14 48  1  0
 15 49  1  0
 15 50  1  0
 16 51  1  0
M  END
> <Name>
BR010271

$$$$
BR010272
  SciTegic05062102053D

 58 59  0  0  1  0            999 V2000
    1.9096   -4.5753    3.2647 C   0  0
    2.9607   -3.6733    3.0998 C   0  0
    0.6370   -4.1104    3.5965 C   0  0
    2.7392   -2.3063    3.2668 C   0  0
    0.4156   -2.7434    3.7634 C   0  0
    1.4666   -1.8413    3.5986 C   0  0
   -0.8940    3.1092   -1.4550 C   0  0
    0.8185   -0.3796   -3.5269 C   0  0
   -2.5780    2.0806    1.8790 C   0  0
   -0.0260   -4.4579   -1.7504 C   0  0
   -0.2081    1.0111   -0.6127 C   0  0  2  0  0  0
    0.2245   -0.3152   -1.2409 C   0  0  2  0  0  0
   -1.0796    0.7611    0.6148 C   0  0  1  0  0  0
    0.8286   -1.2540   -0.1889 C   0  0  2  0  0  0
   -0.4258   -0.2222    1.5822 C   0  0  2  0  0  0
   -1.7419    3.7499   -2.5117 C   0  0
    1.9145   -0.0212   -4.4841 C   0  0
   -2.7326    3.4272    2.5183 C   0  0
   -1.3854   -4.9213   -2.1788 C   0  0
    1.1139   -2.6418   -0.7575 C   0  0
    0.7623    0.3751    2.2427 N   0  0
   -0.2388    3.7327   -0.6310 O   0  0
   -0.2352   -0.9064   -3.8578 O   0  0
   -3.4302    1.2034    1.9145 O   0  0
    0.9949   -5.1204   -1.8763 O   0  0
    0.0466    0.0542    4.6945 O   0  0
    2.4647    0.4861    4.1555 O   0  0
   -0.0641   -1.4327    0.9175 O   0  0
   -0.9740    1.7519   -1.5651 O   0  0
    1.1817   -0.0292   -2.2578 O   0  0
   -1.3595    1.9959    1.2659 O   0  0
   -0.1055   -3.2026   -1.2068 O   0  0
    1.1871   -0.1091    3.8133 S   0  0
    2.0816   -5.6400    3.1355 H   0  0
    3.9519   -4.0349    2.8425 H   0  0
   -0.1808   -4.8130    3.7255 H   0  0
    3.5653   -1.6122    3.1368 H   0  0
   -0.5794   -2.3924    4.0232 H   0  0
    0.6603    1.6351   -0.3657 H   0  0
   -0.6450   -0.7805   -1.7232 H   0  0
   -2.0407    0.3519    0.2771 H   0  0
    1.7843   -0.8532    0.1737 H   0  0
   -1.1256   -0.4731    2.3763 H   0  0
   -1.1488    3.9127   -3.4150 H   0  0
   -2.1462    4.6949   -2.1404 H   0  0
   -2.5769    3.0873   -2.7577 H   0  0
    1.7643    0.9953   -4.8561 H   0  0
    1.9331   -0.7356   -5.3110 H   0  0
    2.8769   -0.0642   -3.9659 H   0  0
   -2.3590    3.3956    3.5448 H   0  0
   -3.7831    3.7284    2.4995 H   0  0
   -2.1498    4.1639    1.9577 H   0  0
   -1.8743   -5.4477   -1.3555 H   0  0
   -1.2973   -5.5708   -3.0534 H   0  0
   -1.9953   -4.0546   -2.4496 H   0  0
    1.5410   -3.2787    0.0165 H   0  0
    1.8063   -2.5642   -1.5952 H   0  0
    1.4811    0.7301    1.6101 H   0  0
  1  2  1  0
  1  3  2  0
  2  4  2  0
  3  5  1  0
  4  6  1  0
  5  6  2  0
  6 33  1  0
  7 16  1  0
  7 22  2  0
  7 29  1  0
  8 17  1  0
  8 23  2  0
  8 30  1  0
  9 18  1  0
  9 24  2  0
  9 31  1  0
 10 19  1  0
 10 25  2  0
 10 32  1  0
 11 12  1  0
 11 13  1  0
 11 29  1  0
 12 14  1  0
 12 30  1  0
 13 15  1  0
 13 31  1  0
 14 20  1  0
 14 28  1  0
 15 21  1  0
 15 28  1  0
 20 32  1  0
 21 33  1  0
 26 33  2  0
 27 33  2  0
  1 34  1  0
  2 35  1  0
  3 36  1  0
  4 37  1  0
  5 38  1  0
 11 39  1  0
 12 40  1  0
 13 41  1  0
 14 42  1  0
 15 43  1  0
 16 44  1  0
 16 45  1  0
 16 46  1  0
 17 47  1  0
 17 48  1  0
 17 49  1  0
 18 50  1  0
 18 51  1  0
 18 52  1  0
 19 53  1  0
 19 54  1  0
 19 55  1  0
 20 56  1  0
 20 57  1  0
 21 58  1  0
M  END
> <Name>
BR010272

$$$$
BR010273
  SciTegic05062102053D

 61 62  0  0  1  0            999 V2000
    4.3209   -5.1106    0.1885 C   0  0
    5.4689   -3.0754   -0.4255 C   0  0
    3.5822   -5.0505   -0.9931 C   0  0
    4.7303   -3.0153   -1.6072 C   0  0
    5.2642   -4.1230    0.4724 C   0  0
    3.7869   -4.0028   -1.8910 C   0  0
   -0.9884    1.9419   -3.2319 C   0  0
    0.2589    2.1396    0.9589 C   0  0
   -0.3753   -1.5491   -4.8100 C   0  0
    1.4437   -1.6631    3.0271 C   0  0
    0.4884    0.5452   -2.0269 C   0  0  1  0  0  0
    0.8544    0.4187   -0.5470 C   0  0  1  0  0  0
    0.4290   -0.8221   -2.7104 C   0  0  2  0  0  0
    2.0958   -0.4639   -0.3741 C   0  0  1  0  0  0
    1.6774   -1.6441   -2.3933 C   0  0  2  0  0  0
    6.0536   -4.1867    1.7361 C   0  0
   -2.3660    2.5311   -3.1979 C   0  0
    0.6325    3.5238    1.3951 C   0  0
   -0.3887   -1.1997   -6.2673 C   0  0
    0.2010   -2.3350    3.5272 C   0  0
    2.4216   -0.7188    1.0942 C   0  0
    1.4980   -3.0211   -2.9131 N   0  0
   -0.1815    2.1375   -4.1306 O   0  0
   -0.6646    1.4958    1.4385 O   0  0
   -0.9271   -2.5331   -4.3363 O   0  0
    2.4224   -1.4271    3.7226 O   0  0
    3.6223   -3.1719   -4.3593 O   0  0
    2.4268   -5.2810   -3.6909 O   0  0
    1.8790   -1.7379   -0.9862 O   0  0
   -0.7923    1.1721   -2.1227 O   0  0
    1.0984    1.7265   -0.0365 O   0  0
    0.3359   -0.6111   -4.1180 O   0  0
    1.3131   -1.3610    1.6971 O   0  0
    2.8525   -3.9276   -3.3897 S   0  0
    4.1543   -5.9304    0.8822 H   0  0
    6.2015   -2.3013   -0.2124 H   0  0
    2.8494   -5.8247   -1.2044 H   0  0
    4.8975   -2.1944   -2.2995 H   0  0
    1.1958    1.2086   -2.5404 H   0  0
   -0.0018    0.0002   -0.0024 H   0  0
   -0.4817   -1.3468   -2.3943 H   0  0
    2.9725    0.0123   -0.8325 H   0  0
    2.5693   -1.2247   -2.8751 H   0  0
    6.9785   -4.7555    1.5806 H   0  0
    6.3185   -3.1824    2.0915 H   0  0
    5.4806   -4.6671    2.5400 H   0  0
   -3.0697    1.8578   -3.6935 H   0  0
   -2.3626    3.5104   -3.6832 H   0  0
   -2.6799    2.6596   -2.1580 H   0  0
    1.3642    3.4725    2.2052 H   0  0
   -0.2608    4.0653    1.7163 H   0  0
    1.0807    4.0605    0.5539 H   0  0
   -1.2502   -0.5648   -6.4886 H   0  0
   -0.4184   -2.1127   -6.8674 H   0  0
    0.5232   -0.6493   -6.5167 H   0  0
   -0.5026   -1.5854    3.8975 H   0  0
    0.4562   -3.0471    4.3161 H   0  0
   -0.2717   -2.8811    2.7057 H   0  0
    2.6107    0.2266    1.6029 H   0  0
    3.2982   -1.3616    1.1749 H   0  0
    0.6537   -3.5019   -2.5968 H   0  0
  1  3  2  0
  1  5  1  0
  2  4  1  0
  2  5  2  0
  3  6  1  0
  4  6  2  0
  5 16  1  0
  6 34  1  0
  7 17  1  0
  7 23  2  0
  7 30  1  0
  8 18  1  0
  8 24  2  0
  8 31  1  0
  9 19  1  0
  9 25  2  0
  9 32  1  0
 10 20  1  0
 10 26  2  0
 10 33  1  0
 11 12  1  0
 11 13  1  0
 11 30  1  0
 12 14  1  0
 12 31  1  0
 13 15  1  0
 13 32  1  0
 14 21  1  0
 14 29  1  0
 15 22  1  0
 15 29  1  0
 21 33  1  0
 22 34  1  0
 27 34  2  0
 28 34  2  0
  1 35  1  0
  2 36  1  0
  3 37  1  0
  4 38  1  0
 11 39  1  0
 12 40  1  0
 13 41  1  0
 14 42  1  0
 15 43  1  0
 16 44  1  0
 16 45  1  0
 16 46  1  0
 17 47  1  0
 17 48  1  0
 17 49  1  0
 18 50  1  0
 18 51  1  0
 18 52  1  0
 19 53  1  0
 19 54  1  0
 19 55  1  0
 20 56  1  0
 20 57  1  0
 20 58  1  0
 21 59  1  0
 21 60  1  0
 22 61  1  0
M  END
> <Name>
BR010273

$$$$
BR010274
  SciTegic05062102053D

 64 66  0  0  1  0            999 V2000
    2.5910   -6.2454    1.4689 C   0  0
    1.7975   -6.2380    0.3256 C   0  0
    5.7671   -3.2771   -0.7161 C   0  0
    3.7776   -5.5123    1.5003 C   0  0
    2.1876   -5.4975   -0.7907 C   0  0
    5.3770   -4.0176    0.4001 C   0  0
    4.9736   -3.2698   -1.8595 C   0  0
    4.1857   -4.7613    0.3860 C   0  0
    3.3788   -4.7538   -0.7767 C   0  0
    3.7869   -4.0028   -1.8910 C   0  0
   -0.9884    1.9419   -3.2319 C   0  0
    0.2589    2.1396    0.9589 C   0  0
   -0.3753   -1.5491   -4.8100 C   0  0
    1.4437   -1.6631    3.0271 C   0  0
    0.4884    0.5452   -2.0269 C   0  0  1  0  0  0
    0.8544    0.4187   -0.5470 C   0  0  1  0  0  0
    0.4290   -0.8221   -2.7104 C   0  0  2  0  0  0
    2.0958   -0.4639   -0.3741 C   0  0  1  0  0  0
    1.6774   -1.6441   -2.3933 C   0  0  2  0  0  0
   -2.3660    2.5311   -3.1979 C   0  0
    0.6325    3.5238    1.3951 C   0  0
   -0.3887   -1.1997   -6.2673 C   0  0
    0.2010   -2.3350    3.5272 C   0  0
    2.4216   -0.7188    1.0942 C   0  0
    1.4980   -3.0211   -2.9131 N   0  0
   -0.1815    2.1375   -4.1306 O   0  0
   -0.6646    1.4958    1.4385 O   0  0
   -0.9271   -2.5331   -4.3363 O   0  0
    2.4224   -1.4271    3.7226 O   0  0
    3.6223   -3.1719   -4.3593 O   0  0
    2.4268   -5.2810   -3.6909 O   0  0
    1.8790   -1.7379   -0.9862 O   0  0
   -0.7923    1.1721   -2.1227 O   0  0
    1.0984    1.7265   -0.0365 O   0  0
    0.3359   -0.6111   -4.1180 O   0  0
    1.3131   -1.3610    1.6971 O   0  0
    2.8525   -3.9276   -3.3897 S   0  0
    2.2866   -6.8223    2.3372 H   0  0
    0.8735   -6.8085    0.3027 H   0  0
    6.6898   -2.7047   -0.6919 H   0  0
    4.3822   -5.5334    2.4048 H   0  0
    1.5351   -5.5226   -1.6593 H   0  0
    6.0121   -4.0089    1.2834 H   0  0
    5.2911   -2.6869   -2.7204 H   0  0
    1.1958    1.2086   -2.5404 H   0  0
   -0.0018    0.0002   -0.0024 H   0  0
   -0.4817   -1.3468   -2.3943 H   0  0
    2.9725    0.0123   -0.8325 H   0  0
    2.5693   -1.2247   -2.8751 H   0  0
   -3.0697    1.8578   -3.6935 H   0  0
   -2.3626    3.5104   -3.6832 H   0  0
   -2.6799    2.6596   -2.1580 H   0  0
    1.3642    3.4725    2.2052 H   0  0
   -0.2608    4.0653    1.7163 H   0  0
    1.0807    4.0605    0.5539 H   0  0
   -1.2502   -0.5648   -6.4886 H   0  0
   -0.4184   -2.1127   -6.8674 H   0  0
    0.5232   -0.6493   -6.5167 H   0  0
   -0.5026   -1.5854    3.8975 H   0  0
    0.4562   -3.0471    4.3161 H   0  0
   -0.2717   -2.8811    2.7057 H   0  0
    2.6107    0.2266    1.6029 H   0  0
    3.2982   -1.3616    1.1749 H   0  0
    0.6537   -3.5019   -2.5968 H   0  0
  1  2  1  0
  1  4  2  0
  2  5  2  0
  3  6  1  0
  3  7  2  0
  4  8  1  0
  5  9  1  0
  6  8  2  0
  7 10  1  0
  8  9  1  0
  9 10  2  0
 10 37  1  0
 11 20  1  0
 11 26  2  0
 11 33  1  0
 12 21  1  0
 12 27  2  0
 12 34  1  0
 13 22  1  0
 13 28  2  0
 13 35  1  0
 14 23  1  0
 14 29  2  0
 14 36  1  0
 15 16  1  0
 15 17  1  0
 15 33  1  0
 16 18  1  0
 16 34  1  0
 17 19  1  0
 17 35  1  0
 18 24  1  0
 18 32  1  0
 19 25  1  0
 19 32  1  0
 24 36  1  0
 25 37  1  0
 30 37  2  0
 31 37  2  0
  1 38  1  0
  2 39  1  0
  3 40  1  0
  4 41  1  0
  5 42  1  0
  6 43  1  0
  7 44  1  0
 15 45  1  0
 16 46  1  0
 17 47  1  0
 18 48  1  0
 19 49  1  0
 20 50  1  0
 20 51  1  0
 20 52  1  0
 21 53  1  0
 21 54  1  0
 21 55  1  0
 22 56  1  0
 22 57  1  0
 22 58  1  0
 23 59  1  0
 23 60  1  0
 23 61  1  0
 24 62  1  0
 24 63  1  0
 25 64  1  0
M  END
> <Name>
BR010274

$$$$
BR010275
  SciTegic05062102053D

 64 66  0  0  1  0            999 V2000
    6.9635   -3.1800    1.9614 C   0  0
    7.1685   -2.1343    1.0663 C   0  0
    6.0212   -4.1686    1.6767 C   0  0
    6.4321   -2.0732   -0.1171 C   0  0
    4.3184   -5.1096    0.1875 C   0  0
    3.5819   -5.0485   -0.9958 C   0  0
    4.7292   -3.0141   -1.6063 C   0  0
    5.2710   -4.1231    0.4903 C   0  0
    5.4795   -3.0597   -0.4200 C   0  0
    3.7869   -4.0028   -1.8910 C   0  0
   -0.9884    1.9419   -3.2319 C   0  0
    0.2589    2.1396    0.9589 C   0  0
   -0.3753   -1.5491   -4.8100 C   0  0
    1.4437   -1.6631    3.0271 C   0  0
    0.4884    0.5452   -2.0269 C   0  0  1  0  0  0
    0.8544    0.4187   -0.5470 C   0  0  1  0  0  0
    0.4290   -0.8221   -2.7104 C   0  0  2  0  0  0
    2.0958   -0.4639   -0.3741 C   0  0  1  0  0  0
    1.6774   -1.6441   -2.3933 C   0  0  2  0  0  0
   -2.3660    2.5311   -3.1979 C   0  0
    0.6325    3.5238    1.3951 C   0  0
   -0.3887   -1.1997   -6.2673 C   0  0
    0.2010   -2.3350    3.5272 C   0  0
    2.4216   -0.7188    1.0942 C   0  0
    1.4980   -3.0211   -2.9131 N   0  0
   -0.1815    2.1375   -4.1306 O   0  0
   -0.6646    1.4958    1.4385 O   0  0
   -0.9271   -2.5331   -4.3363 O   0  0
    2.4224   -1.4271    3.7226 O   0  0
    3.6223   -3.1719   -4.3593 O   0  0
    2.4268   -5.2810   -3.6909 O   0  0
    1.8790   -1.7379   -0.9862 O   0  0
   -0.7923    1.1721   -2.1227 O   0  0
    1.0984    1.7265   -0.0365 O   0  0
    0.3359   -0.6111   -4.1180 O   0  0
    1.3131   -1.3610    1.6971 O   0  0
    2.8525   -3.9276   -3.3897 S   0  0
    7.5379   -3.2273    2.8820 H   0  0
    7.9032   -1.3657    1.2881 H   0  0
    5.8777   -4.9770    2.3907 H   0  0
    6.6093   -1.2468   -0.8022 H   0  0
    4.1424   -5.9366    0.8720 H   0  0
    2.8499   -5.8234   -1.2081 H   0  0
    4.8818   -2.2012   -2.3142 H   0  0
    1.1958    1.2086   -2.5404 H   0  0
   -0.0018    0.0002   -0.0024 H   0  0
   -0.4817   -1.3468   -2.3943 H   0  0
    2.9725    0.0123   -0.8325 H   0  0
    2.5693   -1.2247   -2.8751 H   0  0
   -3.0697    1.8578   -3.6935 H   0  0
   -2.3626    3.5104   -3.6832 H   0  0
   -2.6799    2.6596   -2.1580 H   0  0
    1.3642    3.4725    2.2052 H   0  0
   -0.2608    4.0653    1.7163 H   0  0
    1.0807    4.0605    0.5539 H   0  0
   -1.2502   -0.5648   -6.4886 H   0  0
   -0.4184   -2.1127   -6.8674 H   0  0
    0.5232   -0.6493   -6.5167 H   0  0
   -0.5026   -1.5854    3.8975 H   0  0
    0.4562   -3.0471    4.3161 H   0  0
   -0.2717   -2.8811    2.7057 H   0  0
    2.6107    0.2266    1.6029 H   0  0
    3.2982   -1.3616    1.1749 H   0  0
    0.6537   -3.5019   -2.5968 H   0  0
  1  2  1  0
  1  3  2  0
  2  4  2  0
  3  8  1  0
  4  9  1  0
  5  6  1  0
  5  8  2  0
  6 10  2  0
  7  9  2  0
  7 10  1  0
  8  9  1  0
 10 37  1  0
 11 20  1  0
 11 26  2  0
 11 33  1  0
 12 21  1  0
 12 27  2  0
 12 34  1  0
 13 22  1  0
 13 28  2  0
 13 35  1  0
 14 23  1  0
 14 29  2  0
 14 36  1  0
 15 16  1  0
 15 17  1  0
 15 33  1  0
 16 18  1  0
 16 34  1  0
 17 19  1  0
 17 35  1  0
 18 24  1  0
 18 32  1  0
 19 25  1  0
 19 32  1  0
 24 36  1  0
 25 37  1  0
 30 37  2  0
 31 37  2  0
  1 38  1  0
  2 39  1  0
  3 40  1  0
  4 41  1  0
  5 42  1  0
  6 43  1  0
  7 44  1  0
 15 45  1  0
 16 46  1  0
 17 47  1  0
 18 48  1  0
 19 49  1  0
 20 50  1  0
 20 51  1  0
 20 52  1  0
 21 53  1  0
 21 54  1  0
 21 55  1  0
 22 56  1  0
 22 57  1  0
 22 58  1  0
 23 59  1  0
 23 60  1  0
 23 61  1  0
 24 62  1  0
 24 63  1  0
 25 64  1  0
M  END
> <Name>
BR010275

$$$$
BR010276
  SciTegic05062102053D

 52 52  0  0  1  0            999 V2000
    3.7979    0.0145    0.2360 C   0  0
    1.5540   -3.1657   -0.7251 C   0  0
   -1.6071   -2.8543   -1.7511 C   0  0
   -4.9153    1.4569   -0.1510 C   0  0
    1.3362    0.3369    0.0993 C   0  0  1  0  0  0
    0.7164   -1.0575   -0.0634 C   0  0  1  0  0  0
   -0.6990   -0.9766   -0.6406 C   0  0  2  0  0  0
   -1.5470    0.0394    0.1262 C   0  0  2  0  0  0
    0.3542    1.2909    0.7891 C   0  0  1  0  0  0
    4.9451   -0.0343    1.1899 C   0  0
    2.4487   -3.8322   -1.7257 C   0  0
   -2.2057   -4.2071   -1.5105 C   0  0
   -5.5513    2.4637    0.7588 C   0  0
   -1.3022    3.6440    1.9281 C   0  0
   -2.9268    0.2281   -0.4970 C   0  0
    2.5772    0.2491    0.8378 N   0  0
    0.9003    2.6696    0.7524 N   0  0
    4.0008   -0.1470   -0.9617 O   0  0
    0.9431   -3.7616    0.1518 O   0  0
   -1.4443   -2.3646   -2.8604 O   0  0
   -5.4677    0.9720   -1.1292 O   0  0
    0.8444    5.1080    1.6131 O   0  0
    0.8981    3.1965    3.2562 O   0  0
   -0.9019    1.3132    0.1178 O   0  0
    1.5360   -1.8202   -0.9511 O   0  0
   -1.2818   -2.2747   -0.5577 O   0  0
   -3.6455    1.1712    0.2768 O   0  0
    0.4713    3.7584    1.9891 S   0  0
    1.6025    0.7258   -0.8924 H   0  0
    0.7059   -1.5897    0.8965 H   0  0
   -0.6332   -0.7068   -1.7026 H   0  0
   -1.6933   -0.2871    1.1643 H   0  0
    0.1992    1.0213    1.8414 H   0  0
    5.1314   -1.0509    1.5719 H   0  0
    5.8929    0.2798    0.7240 H   0  0
    4.8398    0.5973    2.0864 H   0  0
    1.8712   -4.1143   -2.6096 H   0  0
    2.9189   -4.7103   -1.2760 H   0  0
    3.2345   -3.1350   -2.0306 H   0  0
   -1.4181   -4.9646   -1.5003 H   0  0
   -2.9440   -4.4291   -2.2851 H   0  0
   -2.7084   -4.2137   -0.5390 H   0  0
   -6.0765    1.9519    1.5690 H   0  0
   -6.2398    3.0943    0.1907 H   0  0
   -4.7754    3.1004    1.1939 H   0  0
   -1.7165    4.3081    2.6882 H   0  0
   -1.6328    3.9476    0.9336 H   0  0
   -1.5875    2.6099    2.1270 H   0  0
   -3.4655   -0.7195   -0.5018 H   0  0
   -2.8269    0.5998   -1.5167 H   0  0
    2.5494    0.3654    1.8456 H   0  0
    0.9966    3.0450   -0.1959 H   0  0
  1 10  1  0
  1 16  1  0
  1 18  2  0
  2 11  1  0
  2 19  2  0
  2 25  1  0
  3 12  1  0
  3 20  2  0
  3 26  1  0
  4 13  1  0
  4 21  2  0
  4 27  1  0
  5  6  1  0
  5  9  1  0
  5 16  1  0
  6  7  1  0
  6 25  1  0
  7  8  1  0
  7 26  1  0
  8 15  1  0
  8 24  1  0
  9 17  1  0
  9 24  1  0
 14 28  1  0
 15 27  1  0
 17 28  1  0
 22 28  2  0
 23 28  2  0
  5 29  1  0
  6 30  1  0
  7 31  1  0
  8 32  1  0
  9 33  1  0
 10 34  1  0
 10 35  1  0
 10 36  1  0
 11 37  1  0
 11 38  1  0
 11 39  1  0
 12 40  1  0
 12 41  1  0
 12 42  1  0
 13 43  1  0
 13 44  1  0
 13 45  1  0
 14 46  1  0
 14 47  1  0
 14 48  1  0
 15 49  1  0
 15 50  1  0
 16 51  1  0
 17 52  1  0
M  END
> <Name>
BR010276

$$$$
BR010277
  SciTegic05062102053D

 59 60  0  0  1  0            999 V2000
   -0.4268    2.6635    5.7630 C   0  0
    0.6653    3.4366    5.3690 C   0  0
   -1.3869    2.2834    4.8252 C   0  0
    0.7973    3.8297    4.0373 C   0  0
   -1.2549    2.6765    3.4935 C   0  0
   -0.1628    3.4497    3.0994 C   0  0
    3.7979    0.0145    0.2360 C   0  0
    1.5540   -3.1657   -0.7251 C   0  0
   -1.6071   -2.8543   -1.7511 C   0  0
   -4.9153    1.4569   -0.1510 C   0  0
    1.3362    0.3369    0.0993 C   0  0  1  0  0  0
    0.7164   -1.0575   -0.0634 C   0  0  1  0  0  0
   -0.6990   -0.9766   -0.6406 C   0  0  2  0  0  0
   -1.5470    0.0394    0.1262 C   0  0  2  0  0  0
    0.3542    1.2909    0.7891 C   0  0  1  0  0  0
    4.9451   -0.0343    1.1899 C   0  0
    2.4487   -3.8322   -1.7257 C   0  0
   -2.2057   -4.2071   -1.5105 C   0  0
   -5.5513    2.4637    0.7588 C   0  0
   -2.9268    0.2281   -0.4970 C   0  0
    2.5772    0.2491    0.8378 N   0  0
    0.9003    2.6696    0.7524 N   0  0
    4.0008   -0.1470   -0.9617 O   0  0
    0.9431   -3.7616    0.1518 O   0  0
   -1.4443   -2.3646   -2.8604 O   0  0
   -5.4677    0.9720   -1.1292 O   0  0
   -1.3204    3.9698    0.8192 O   0  0
    0.8230    5.1474    1.4055 O   0  0
   -0.9019    1.3132    0.1178 O   0  0
    1.5360   -1.8202   -0.9511 O   0  0
   -1.2818   -2.2747   -0.5577 O   0  0
   -3.6455    1.1712    0.2768 O   0  0
    0.0031    3.9510    1.4124 S   0  0
   -0.5305    2.3575    6.8000 H   0  0
    1.4125    3.7336    6.0991 H   0  0
   -2.2373    1.6820    5.1325 H   0  0
    1.6515    4.4328    3.7412 H   0  0
   -2.0094    2.3759    2.7716 H   0  0
    1.6025    0.7258   -0.8924 H   0  0
    0.7059   -1.5897    0.8965 H   0  0
   -0.6332   -0.7068   -1.7026 H   0  0
   -1.6933   -0.2871    1.1643 H   0  0
    0.1992    1.0213    1.8414 H   0  0
    5.1314   -1.0509    1.5719 H   0  0
    5.8929    0.2798    0.7240 H   0  0
    4.8398    0.5973    2.0864 H   0  0
    1.8712   -4.1143   -2.6096 H   0  0
    2.9189   -4.7103   -1.2760 H   0  0
    3.2345   -3.1350   -2.0306 H   0  0
   -1.4181   -4.9646   -1.5003 H   0  0
   -2.9440   -4.4291   -2.2851 H   0  0
   -2.7084   -4.2137   -0.5390 H   0  0
   -6.0765    1.9519    1.5690 H   0  0
   -6.2398    3.0943    0.1907 H   0  0
   -4.7754    3.1004    1.1939 H   0  0
   -3.4655   -0.7195   -0.5018 H   0  0
   -2.8269    0.5998   -1.5167 H   0  0
    2.5494    0.3654    1.8456 H   0  0
    1.9187    2.7354    0.7071 H   0  0
  1  2  1  0
  1  3  2  0
  2  4  2  0
  3  5  1  0
  4  6  1  0
  5  6  2  0
  6 33  1  0
  7 16  1  0
  7 21  1  0
  7 23  2  0
  8 17  1  0
  8 24  2  0
  8 30  1  0
  9 18  1  0
  9 25  2  0
  9 31  1  0
 10 19  1  0
 10 26  2  0
 10 32  1  0
 11 12  1  0
 11 15  1  0
 11 21  1  0
 12 13  1  0
 12 30  1  0
 13 14  1  0
 13 31  1  0
 14 20  1  0
 14 29  1  0
 15 22  1  0
 15 29  1  0
 20 32  1  0
 22 33  1  0
 27 33  2  0
 28 33  2  0
  1 34  1  0
  2 35  1  0
  3 36  1  0
  4 37  1  0
  5 38  1  0
 11 39  1  0
 12 40  1  0
 13 41  1  0
 14 42  1  0
 15 43  1  0
 16 44  1  0
 16 45  1  0
 16 46  1  0
 17 47  1  0
 17 48  1  0
 17 49  1  0
 18 50  1  0
 18 51  1  0
 18 52  1  0
 19 53  1  0
 19 54  1  0
 19 55  1  0
 20 56  1  0
 20 57  1  0
 21 58  1  0
 22 59  1  0
M  END
> <Name>
BR010277

$$$$
BR010278
  SciTegic05062102053D

 62 63  0  0  1  0            999 V2000
    0.6650    3.4353    5.3691 C   0  0
   -1.3866    2.2816    4.8242 C   0  0
    0.7970    3.8295    4.0376 C   0  0
   -1.2546    2.6757    3.4927 C   0  0
   -0.4268    2.6613    5.7624 C   0  0
   -0.1628    3.4497    3.0994 C   0  0
    3.7979    0.0145    0.2360 C   0  0
    1.5540   -3.1657   -0.7251 C   0  0
   -1.6071   -2.8543   -1.7511 C   0  0
   -4.9153    1.4569   -0.1510 C   0  0
    1.3362    0.3369    0.0993 C   0  0  1  0  0  0
    0.7164   -1.0575   -0.0634 C   0  0  1  0  0  0
   -0.6990   -0.9766   -0.6406 C   0  0  2  0  0  0
   -1.5470    0.0394    0.1262 C   0  0  2  0  0  0
    0.3542    1.2909    0.7891 C   0  0  1  0  0  0
   -0.5678    2.2391    7.1858 C   0  0
    4.9451   -0.0343    1.1899 C   0  0
    2.4487   -3.8322   -1.7257 C   0  0
   -2.2057   -4.2071   -1.5105 C   0  0
   -5.5513    2.4637    0.7588 C   0  0
   -2.9268    0.2281   -0.4970 C   0  0
    2.5772    0.2491    0.8378 N   0  0
    0.9003    2.6696    0.7524 N   0  0
    4.0008   -0.1470   -0.9617 O   0  0
    0.9431   -3.7616    0.1518 O   0  0
   -1.4443   -2.3646   -2.8604 O   0  0
   -5.4677    0.9720   -1.1292 O   0  0
   -1.3204    3.9698    0.8192 O   0  0
    0.8230    5.1474    1.4055 O   0  0
   -0.9019    1.3132    0.1178 O   0  0
    1.5360   -1.8202   -0.9511 O   0  0
   -1.2818   -2.2747   -0.5577 O   0  0
   -3.6455    1.1712    0.2768 O   0  0
    0.0031    3.9510    1.4124 S   0  0
    1.4179    3.7356    6.0929 H   0  0
   -2.2403    1.6782    5.1215 H   0  0
    1.6517    4.4320    3.7417 H   0  0
   -2.0081    2.3739    2.7700 H   0  0
    1.6025    0.7258   -0.8924 H   0  0
    0.7059   -1.5897    0.8965 H   0  0
   -0.6332   -0.7068   -1.7026 H   0  0
   -1.6933   -0.2871    1.1643 H   0  0
    0.1992    1.0213    1.8414 H   0  0
   -1.1380    2.9863    7.7512 H   0  0
   -1.0843    1.2738    7.2658 H   0  0
    0.4128    2.1151    7.6636 H   0  0
    5.1314   -1.0509    1.5719 H   0  0
    5.8929    0.2798    0.7240 H   0  0
    4.8398    0.5973    2.0864 H   0  0
    1.8712   -4.1143   -2.6096 H   0  0
    2.9189   -4.7103   -1.2760 H   0  0
    3.2345   -3.1350   -2.0306 H   0  0
   -1.4181   -4.9646   -1.5003 H   0  0
   -2.9440   -4.4291   -2.2851 H   0  0
   -2.7084   -4.2137   -0.5390 H   0  0
   -6.0765    1.9519    1.5690 H   0  0
   -6.2398    3.0943    0.1907 H   0  0
   -4.7754    3.1004    1.1939 H   0  0
   -3.4655   -0.7195   -0.5018 H   0  0
   -2.8269    0.5998   -1.5167 H   0  0
    2.5494    0.3654    1.8456 H   0  0
    1.9187    2.7354    0.7071 H   0  0
  1  3  2  0
  1  5  1  0
  2  4  1  0
  2  5  2  0
  3  6  1  0
  4  6  2  0
  5 16  1  0
  6 34  1  0
  7 17  1  0
  7 22  1  0
  7 24  2  0
  8 18  1  0
  8 25  2  0
  8 31  1  0
  9 19  1  0
  9 26  2  0
  9 32  1  0
 10 20  1  0
 10 27  2  0
 10 33  1  0
 11 12  1  0
 11 15  1  0
 11 22  1  0
 12 13  1  0
 12 31  1  0
 13 14  1  0
 13 32  1  0
 14 21  1  0
 14 30  1  0
 15 23  1  0
 15 30  1  0
 21 33  1  0
 23 34  1  0
 28 34  2  0
 29 34  2  0
  1 35  1  0
  2 36  1  0
  3 37  1  0
  4 38  1  0
 11 39  1  0
 12 40  1  0
 13 41  1  0
 14 42  1  0
 15 43  1  0
 16 44  1  0
 16 45  1  0
 16 46  1  0
 17 47  1  0
 17 48  1  0
 17 49  1  0
 18 50  1  0
 18 51  1  0
 18 52  1  0
 19 53  1  0
 19 54  1  0
 19 55  1  0
 20 56  1  0
 20 57  1  0
 20 58  1  0
 21 59  1  0
 21 60  1  0
 22 61  1  0
 23 62  1  0
M  END
> <Name>
BR010278

$$$$
BR010279
  SciTegic05062102053D

 65 67  0  0  1  0            999 V2000
    3.0557    3.3771    5.8168 C   0  0
    3.2699    3.7846    4.5034 C   0  0
   -1.6534    2.6595    4.8262 C   0  0
    1.7793    2.9945    6.2301 C   0  0
    2.2085    3.8110    3.5983 C   0  0
   -0.5920    2.6331    5.7312 C   0  0
   -1.4392    3.0670    3.5128 C   0  0
    0.6993    3.0149    5.3325 C   0  0
    0.9171    3.4293    3.9970 C   0  0
   -0.1628    3.4497    3.0994 C   0  0
    3.7979    0.0145    0.2360 C   0  0
    1.5540   -3.1657   -0.7251 C   0  0
   -1.6071   -2.8543   -1.7511 C   0  0
   -4.9153    1.4569   -0.1510 C   0  0
    1.3362    0.3369    0.0993 C   0  0  1  0  0  0
    0.7164   -1.0575   -0.0634 C   0  0  1  0  0  0
   -0.6990   -0.9766   -0.6406 C   0  0  2  0  0  0
   -1.5470    0.0394    0.1262 C   0  0  2  0  0  0
    0.3542    1.2909    0.7891 C   0  0  1  0  0  0
    4.9451   -0.0343    1.1899 C   0  0
    2.4487   -3.8322   -1.7257 C   0  0
   -2.2057   -4.2071   -1.5105 C   0  0
   -5.5513    2.4637    0.7588 C   0  0
   -2.9268    0.2281   -0.4970 C   0  0
    2.5772    0.2491    0.8378 N   0  0
    0.9003    2.6696    0.7524 N   0  0
    4.0008   -0.1470   -0.9617 O   0  0
    0.9431   -3.7616    0.1518 O   0  0
   -1.4443   -2.3646   -2.8604 O   0  0
   -5.4677    0.9720   -1.1292 O   0  0
   -1.3204    3.9698    0.8192 O   0  0
    0.8230    5.1474    1.4055 O   0  0
   -0.9019    1.3132    0.1178 O   0  0
    1.5360   -1.8202   -0.9511 O   0  0
   -1.2818   -2.2747   -0.5577 O   0  0
   -3.6455    1.1712    0.2768 O   0  0
    0.0031    3.9510    1.4124 S   0  0
    3.8825    3.3572    6.5206 H   0  0
    4.2643    4.0814    4.1827 H   0  0
   -2.6471    2.3601    5.1466 H   0  0
    1.6354    2.6801    7.2618 H   0  0
    2.4252    4.1360    2.5843 H   0  0
   -0.7819    2.3108    6.7530 H   0  0
   -2.2765    3.0811    2.8197 H   0  0
    1.6025    0.7258   -0.8924 H   0  0
    0.7059   -1.5897    0.8965 H   0  0
   -0.6332   -0.7068   -1.7026 H   0  0
   -1.6933   -0.2871    1.1643 H   0  0
    0.1992    1.0213    1.8414 H   0  0
    5.1314   -1.0509    1.5719 H   0  0
    5.8929    0.2798    0.7240 H   0  0
    4.8398    0.5973    2.0864 H   0  0
    1.8712   -4.1143   -2.6096 H   0  0
    2.9189   -4.7103   -1.2760 H   0  0
    3.2345   -3.1350   -2.0306 H   0  0
   -1.4181   -4.9646   -1.5003 H   0  0
   -2.9440   -4.4291   -2.2851 H   0  0
   -2.7084   -4.2137   -0.5390 H   0  0
   -6.0765    1.9519    1.5690 H   0  0
   -6.2398    3.0943    0.1907 H   0  0
   -4.7754    3.1004    1.1939 H   0  0
   -3.4655   -0.7195   -0.5018 H   0  0
   -2.8269    0.5998   -1.5167 H   0  0
    2.5494    0.3654    1.8456 H   0  0
    1.9187    2.7354    0.7071 H   0  0
  1  2  1  0
  1  4  2  0
  2  5  2  0
  3  6  1  0
  3  7  2  0
  4  8  1  0
  5  9  1  0
  6  8  2  0
  7 10  1  0
  8  9  1  0
  9 10  2  0
 10 37  1  0
 11 20  1  0
 11 25  1  0
 11 27  2  0
 12 21  1  0
 12 28  2  0
 12 34  1  0
 13 22  1  0
 13 29  2  0
 13 35  1  0
 14 23  1  0
 14 30  2  0
 14 36  1  0
 15 16  1  0
 15 19  1  0
 15 25  1  0
 16 17  1  0
 16 34  1  0
 17 18  1  0
 17 35  1  0
 18 24  1  0
 18 33  1  0
 19 26  1  0
 19 33  1  0
 24 36  1  0
 26 37  1  0
 31 37  2  0
 32 37  2  0
  1 38  1  0
  2 39  1  0
  3 40  1  0
  4 41  1  0
  5 42  1  0
  6 43  1  0
  7 44  1  0
 15 45  1  0
 16 46  1  0
 17 47  1  0
 18 48  1  0
 19 49  1  0
 20 50  1  0
 20 51  1  0
 20 52  1  0
 21 53  1  0
 21 54  1  0
 21 55  1  0
 22 56  1  0
 22 57  1  0
 22 58  1  0
 23 59  1  0
 23 60  1  0
 23 61  1  0
 24 62  1  0
 24 63  1  0
 25 64  1  0
 26 65  1  0
M  END
> <Name>
BR010279

$$$$
BR010280
  SciTegic05062102053D

 65 67  0  0  1  0            999 V2000
    4.9422    6.3005   -2.9301 C   0  0
    3.5545    6.2532   -2.8356 C   0  0
    5.6528    5.1745   -3.3466 C   0  0
    2.8721    5.0796   -3.1573 C   0  0
    5.6815    2.8419   -4.0955 C   0  0
    4.9992    1.6683   -4.4171 C   0  0
    2.9008    2.7469   -3.9060 C   0  0
    4.9824    3.9848   -3.6744 C   0  0
    3.5712    3.9366   -3.5783 C   0  0
    3.6115    1.6209   -4.3226 C   0  0
    0.2209   -3.2141   -1.4901 C   0  0
   -0.2689   -1.3184    2.0056 C   0  0
    1.8836    1.0094    3.0669 C   0  0
    5.7148    2.3126    1.1447 C   0  0
    1.4950   -1.1091   -1.1318 C   0  0  2  0  0  0
    0.9667   -0.4917    0.1688 C   0  0  2  0  0  0
    1.9710    0.5014    0.7608 C   0  0  1  0  0  0
    2.4496    1.4922   -0.3034 C   0  0  1  0  0  0
    2.0305   -0.0284   -2.0763 C   0  0  2  0  0  0
   -0.9007   -3.8131   -2.2721 C   0  0
   -0.3911   -2.4932    2.9281 C   0  0
    1.1112    1.7895    4.0872 C   0  0
    6.7935    1.3530    1.5467 C   0  0
    3.5420    2.4187    0.2219 C   0  0
    0.4558   -1.8843   -1.7765 N   0  0
    2.7027   -0.6673   -3.2338 N   0  0
    0.8310   -3.9050   -0.6826 O   0  0
   -0.9795   -0.3241    2.0646 O   0  0
    2.8607    0.3204    3.3270 O   0  0
    5.8017    3.5278    1.2580 O   0  0
    1.4012    0.4916   -5.1284 O   0  0
    3.6017   -0.6158   -5.6341 O   0  0
    2.9971    0.7865   -1.4177 O   0  0
    0.7399   -1.5391    1.1138 O   0  0
    1.3305    1.1908    1.8311 O   0  0
    4.6394    1.6286    0.6419 O   0  0
    2.7491    0.1328   -4.7306 S   0  0
    5.4727    7.2149   -2.6804 H   0  0
    3.0021    7.1306   -2.5125 H   0  0
    6.7372    5.2343   -3.4134 H   0  0
    1.7873    5.0656   -3.0762 H   0  0
    6.7662    2.8566   -4.1777 H   0  0
    5.5621    0.7964   -4.7400 H   0  0
    1.8154    2.6987   -3.8366 H   0  0
    2.2904   -1.8249   -0.8862 H   0  0
    0.0000   -0.0002   -0.0013 H   0  0
    2.8168   -0.0575    1.1815 H   0  0
    1.6167    2.1205   -0.6458 H   0  0
    1.2220    0.6029   -2.4658 H   0  0
   -0.5615   -4.2549   -3.2228 H   0  0
   -1.3992   -4.6336   -1.7313 H   0  0
   -1.7078   -3.1159   -2.5482 H   0  0
   -1.0888   -3.2226    2.5094 H   0  0
   -0.7280   -2.1584    3.9125 H   0  0
    0.5870   -2.9703    3.0392 H   0  0
    1.5330    2.7930    4.1839 H   0  0
    1.1330    1.2680    5.0474 H   0  0
    0.0701    1.8786    3.7635 H   0  0
    6.6564    1.0564    2.5895 H   0  0
    7.7735    1.8150    1.4030 H   0  0
    6.7355    0.4587    0.9195 H   0  0
    3.1668    2.9934    1.0687 H   0  0
    3.8669    3.0962   -0.5676 H   0  0
   -0.1267   -1.4290   -2.4710 H   0  0
    3.4325   -1.3421   -2.9978 H   0  0
  1  2  1  0
  1  3  2  0
  2  4  2  0
  3  8  1  0
  4  9  1  0
  5  6  1  0
  5  8  2  0
  6 10  2  0
  7  9  2  0
  7 10  1  0
  8  9  1  0
 10 37  1  0
 11 20  1  0
 11 25  1  0
 11 27  2  0
 12 21  1  0
 12 28  2  0
 12 34  1  0
 13 22  1  0
 13 29  2  0
 13 35  1  0
 14 23  1  0
 14 30  2  0
 14 36  1  0
 15 16  1  0
 15 19  1  0
 15 25  1  0
 16 17  1  0
 16 34  1  0
 17 18  1  0
 17 35  1  0
 18 24  1  0
 18 33  1  0
 19 26  1  0
 19 33  1  0
 24 36  1  0
 26 37  1  0
 31 37  2  0
 32 37  2  0
  1 38  1  0
  2 39  1  0
  3 40  1  0
  4 41  1  0
  5 42  1  0
  6 43  1  0
  7 44  1  0
 15 45  1  0
 16 46  1  0
 17 47  1  0
 18 48  1  0
 19 49  1  0
 20 50  1  0
 20 51  1  0
 20 52  1  0
 21 53  1  0
 21 54  1  0
 21 55  1  0
 22 56  1  0
 22 57  1  0
 22 58  1  0
 23 59  1  0
 23 60  1  0
 23 61  1  0
 24 62  1  0
 24 63  1  0
 25 64  1  0
 26 65  1  0
M  END
> <Name>
BR010280

$$$$
BR010281
  SciTegic05062102053D

 31 31  0  0  1  0            999 V2000
    0.4884    0.5452   -2.0269 C   0  0  1  0  0  0
    0.8544    0.4187   -0.5470 C   0  0  1  0  0  0
    0.4290   -0.8221   -2.7104 C   0  0  2  0  0  0
    2.0958   -0.4639   -0.3741 C   0  0  1  0  0  0
    1.6774   -1.6441   -2.3933 C   0  0  2  0  0  0
    3.4060   -4.5483   -1.8132 C   0  0
    2.4216   -0.7188    1.0942 C   0  0
    1.4980   -3.0211   -2.9131 N   0  0
    3.8997   -3.0111   -3.8731 O   0  0
    2.4317   -5.0372   -4.1832 O   0  0
    1.8790   -1.7379   -0.9862 O   0  0
   -0.7923    1.1721   -2.1227 O   0  0
    1.0984    1.7265   -0.0365 O   0  0
    0.3359   -0.6111   -4.1180 O   0  0
    3.5685   -1.5462    1.1644 O   0  0
    2.8722   -3.9096   -3.3845 S   0  0
    1.1958    1.2086   -2.5404 H   0  0
   -0.0018    0.0002   -0.0024 H   0  0
   -0.4817   -1.3468   -2.3943 H   0  0
    2.9725    0.0123   -0.8325 H   0  0
    2.5693   -1.2247   -2.8751 H   0  0
    4.3011   -5.1517   -1.9728 H   0  0
    3.6251   -3.7058   -1.1555 H   0  0
    2.6023   -5.1586   -1.3986 H   0  0
    1.5847   -1.2212    1.5794 H   0  0
    2.6269    0.2251    1.5994 H   0  0
    0.7374   -3.5342   -2.4565 H   0  0
   -1.4129    0.5968   -1.6513 H   0  0
    1.8322    2.0928   -0.5541 H   0  0
    1.1302   -0.1186   -4.3754 H   0  0
    3.7564   -1.6944    2.1069 H   0  0
  1  2  1  0
  1  3  1  0
  1 12  1  0
  2  4  1  0
  2 13  1  0
  3  5  1  0
  3 14  1  0
  4  7  1  0
  4 11  1  0
  5  8  1  0
  5 11  1  0
  6 16  1  0
  7 15  1  0
  8 16  1  0
  9 16  2  0
 10 16  2  0
  1 17  1  0
  2 18  1  0
  3 19  1  0
  4 20  1  0
  5 21  1  0
  6 22  1  0
  6 23  1  0
  6 24  1  0
  7 25  1  0
  7 26  1  0
  8 27  1  0
 12 28  1  0
 13 29  1  0
 14 30  1  0
 15 31  1  0
M  END
> <Name>
BR010281

$$$$
BR010282
  SciTegic05062102053D

 38 39  0  0  1  0            999 V2000
    5.2650   -4.1251    0.4719 C   0  0
    4.3208   -5.1118    0.1880 C   0  0
    5.4700   -3.0772   -0.4257 C   0  0
    3.5818   -5.0507   -0.9934 C   0  0
    4.7311   -3.0161   -1.6071 C   0  0
    3.7869   -4.0028   -1.8910 C   0  0
    0.4884    0.5452   -2.0269 C   0  0  1  0  0  0
    0.8544    0.4187   -0.5470 C   0  0  1  0  0  0
    0.4290   -0.8221   -2.7104 C   0  0  2  0  0  0
    2.0958   -0.4639   -0.3741 C   0  0  1  0  0  0
    1.6774   -1.6441   -2.3933 C   0  0  2  0  0  0
    2.4216   -0.7188    1.0942 C   0  0
    1.4980   -3.0211   -2.9131 N   0  0
    3.6223   -3.1719   -4.3593 O   0  0
    2.4268   -5.2810   -3.6909 O   0  0
    1.8790   -1.7379   -0.9862 O   0  0
   -0.7923    1.1721   -2.1227 O   0  0
    1.0984    1.7265   -0.0365 O   0  0
    0.3359   -0.6111   -4.1180 O   0  0
    1.3131   -1.3610    1.6971 O   0  0
    2.8525   -3.9276   -3.3897 S   0  0
    5.8412   -4.1724    1.3913 H   0  0
    4.1616   -5.9284    0.8860 H   0  0
    6.2057   -2.3095   -0.2047 H   0  0
    2.8495   -5.8252   -1.2053 H   0  0
    4.8999   -2.1960   -2.2997 H   0  0
    1.1958    1.2086   -2.5404 H   0  0
   -0.0018    0.0002   -0.0024 H   0  0
   -0.4817   -1.3468   -2.3943 H   0  0
    2.9725    0.0123   -0.8325 H   0  0
    2.5693   -1.2247   -2.8751 H   0  0
    2.6107    0.2266    1.6029 H   0  0
    3.2982   -1.3616    1.1749 H   0  0
    0.6537   -3.5019   -2.5968 H   0  0
   -1.4129    0.5968   -1.6513 H   0  0
    1.8322    2.0928   -0.5541 H   0  0
    1.1302   -0.1186   -4.3754 H   0  0
    1.5435   -1.5127    2.6296 H   0  0
  1  2  1  0
  1  3  2  0
  2  4  2  0
  3  5  1  0
  4  6  1  0
  5  6  2  0
  6 21  1  0
  7  8  1  0
  7  9  1  0
  7 17  1  0
  8 10  1  0
  8 18  1  0
  9 11  1  0
  9 19  1  0
 10 12  1  0
 10 16  1  0
 11 13  1  0
 11 16  1  0
 12 20  1  0
 13 21  1  0
 14 21  2  0
 15 21  2  0
  1 22  1  0
  2 23  1  0
  3 24  1  0
  4 25  1  0
  5 26  1  0
  7 27  1  0
  8 28  1  0
  9 29  1  0
 10 30  1  0
 11 31  1  0
 12 32  1  0
 12 33  1  0
 13 34  1  0
 17 35  1  0
 18 36  1  0
 19 37  1  0
 20 38  1  0
M  END
> <Name>
BR010282

$$$$
BR010283
  SciTegic05062102053D

 41 42  0  0  1  0            999 V2000
    4.3209   -5.1106    0.1885 C   0  0
    5.4689   -3.0754   -0.4255 C   0  0
    3.5822   -5.0505   -0.9931 C   0  0
    4.7303   -3.0153   -1.6072 C   0  0
    5.2642   -4.1230    0.4724 C   0  0
    3.7869   -4.0028   -1.8910 C   0  0
    0.4884    0.5452   -2.0269 C   0  0  1  0  0  0
    0.8544    0.4187   -0.5470 C   0  0  1  0  0  0
    0.4290   -0.8221   -2.7104 C   0  0  2  0  0  0
    2.0958   -0.4639   -0.3741 C   0  0  1  0  0  0
    1.6774   -1.6441   -2.3933 C   0  0  2  0  0  0
    6.0536   -4.1867    1.7361 C   0  0
    2.4216   -0.7188    1.0942 C   0  0
    1.4980   -3.0211   -2.9131 N   0  0
    3.6223   -3.1719   -4.3593 O   0  0
    2.4268   -5.2810   -3.6909 O   0  0
    1.8790   -1.7379   -0.9862 O   0  0
   -0.7923    1.1721   -2.1227 O   0  0
    1.0984    1.7265   -0.0365 O   0  0
    0.3359   -0.6111   -4.1180 O   0  0
    1.3131   -1.3610    1.6971 O   0  0
    2.8525   -3.9276   -3.3897 S   0  0
    4.1543   -5.9304    0.8822 H   0  0
    6.2015   -2.3013   -0.2124 H   0  0
    2.8494   -5.8247   -1.2044 H   0  0
    4.8975   -2.1944   -2.2995 H   0  0
    1.1958    1.2086   -2.5404 H   0  0
   -0.0018    0.0002   -0.0024 H   0  0
   -0.4817   -1.3468   -2.3943 H   0  0
    2.9725    0.0123   -0.8325 H   0  0
    2.5693   -1.2247   -2.8751 H   0  0
    6.9785   -4.7555    1.5806 H   0  0
    6.3185   -3.1824    2.0915 H   0  0
    5.4806   -4.6671    2.5400 H   0  0
    2.6107    0.2266    1.6029 H   0  0
    3.2982   -1.3616    1.1749 H   0  0
    0.6537   -3.5019   -2.5968 H   0  0
   -1.4129    0.5968   -1.6513 H   0  0
    1.8322    2.0928   -0.5541 H   0  0
    1.1302   -0.1186   -4.3754 H   0  0
    1.5435   -1.5127    2.6296 H   0  0
  1  3  2  0
  1  5  1  0
  2  4  1  0
  2  5  2  0
  3  6  1  0
  4  6  2  0
  5 12  1  0
  6 22  1  0
  7  8  1  0
  7  9  1  0
  7 18  1  0
  8 10  1  0
  8 19  1  0
  9 11  1  0
  9 20  1  0
 10 13  1  0
 10 17  1  0
 11 14  1  0
 11 17  1  0
 13 21  1  0
 14 22  1  0
 15 22  2  0
 16 22  2  0
  1 23  1  0
  2 24  1  0
  3 25  1  0
  4 26  1  0
  7 27  1  0
  8 28  1  0
  9 29  1  0
 10 30  1  0
 11 31  1  0
 12 32  1  0
 12 33  1  0
 12 34  1  0
 13 35  1  0
 13 36  1  0
 14 37  1  0
 18 38  1  0
 19 39  1  0
 20 40  1  0
 21 41  1  0
M  END
> <Name>
BR010283

$$$$
BR010284
  SciTegic05062102053D

 44 46  0  0  1  0            999 V2000
    4.1877   -2.4038    5.5914 C   0  0
    2.8326   -2.6986    5.4748 C   0  0
    4.7596   -3.1436    0.8167 C   0  0
    5.0098   -2.4394    4.4648 C   0  0
    2.2943   -3.0302    4.2312 C   0  0
    5.2978   -2.8119    2.0604 C   0  0
    3.4044   -3.4385    0.7002 C   0  0
    4.4851   -2.7712    3.2051 C   0  0
    3.1070   -3.0711    3.0865 C   0  0
    2.5823   -3.4029    1.8268 C   0  0
   -0.1465    1.2164    0.3294 C   0  0  2  0  0  0
   -0.3007    0.7306   -1.1125 C   0  0  2  0  0  0
   -0.3392    0.0754    1.3283 C   0  0  1  0  0  0
    0.5600   -0.5133   -1.3563 C   0  0  2  0  0  0
    0.4953   -1.1419    0.9334 C   0  0  1  0  0  0
    0.3440   -1.1017   -2.7469 C   0  0
    0.1331   -2.2855    1.8048 N   0  0
    0.7141   -4.2050    0.1907 O   0  0
    0.4817   -4.6815    2.6490 O   0  0
    0.2236   -1.5306   -0.4097 O   0  0
   -1.1306    2.2234    0.5738 O   0  0
    0.0971    1.7881   -1.9813 O   0  0
    0.0647    0.5459    2.6129 O   0  0
    1.1806   -2.2348   -2.8920 O   0  0
    0.8773   -3.7941    1.5721 S   0  0
    4.6058   -2.1460    6.5601 H   0  0
    2.1935   -2.6697    6.3526 H   0  0
    5.3985   -3.1699   -0.0612 H   0  0
    6.0663   -2.2057    4.5800 H   0  0
    1.2314   -3.2521    4.1903 H   0  0
    6.3596   -2.5846    2.1287 H   0  0
    3.0005   -3.6941   -0.2761 H   0  0
    0.8292    1.6982    0.4684 H   0  0
   -1.3599    0.5177   -1.3064 H   0  0
   -1.4052   -0.1787    1.3888 H   0  0
    1.6258   -0.2683   -1.2599 H   0  0
    1.5692   -0.9577    1.0604 H   0  0
    0.6015   -0.3641   -3.5072 H   0  0
   -0.6964   -1.4045   -2.8658 H   0  0
   -0.2257   -2.0358    2.7284 H   0  0
   -1.9916    1.8032    0.4308 H   0  0
    1.0225    1.9862   -1.7696 H   0  0
    0.9973    0.7979    2.5327 H   0  0
    1.0259   -2.5916   -3.7833 H   0  0
  1  2  1  0
  1  4  2  0
  2  5  2  0
  3  6  1  0
  3  7  2  0
  4  8  1  0
  5  9  1  0
  6  8  2  0
  7 10  1  0
  8  9  1  0
  9 10  2  0
 10 25  1  0
 11 12  1  0
 11 13  1  0
 11 21  1  0
 12 14  1  0
 12 22  1  0
 13 15  1  0
 13 23  1  0
 14 16  1  0
 14 20  1  0
 15 17  1  0
 15 20  1  0
 16 24  1  0
 17 25  1  0
 18 25  2  0
 19 25  2  0
  1 26  1  0
  2 27  1  0
  3 28  1  0
  4 29  1  0
  5 30  1  0
  6 31  1  0
  7 32  1  0
 11 33  1  0
 12 34  1  0
 13 35  1  0
 14 36  1  0
 15 37  1  0
 16 38  1  0
 16 39  1  0
 17 40  1  0
 21 41  1  0
 22 42  1  0
 23 43  1  0
 24 44  1  0
M  END
> <Name>
BR010284

$$$$
BR010285
  SciTegic05062102053D

 44 46  0  0  1  0            999 V2000
    7.4404   -2.0718    1.3408 C   0  0
    6.8904   -1.9850    0.0654 C   0  0
    6.6471   -2.4673    2.4182 C   0  0
    5.5449   -2.2934   -0.1376 C   0  0
    4.4778   -3.1814    3.3052 C   0  0
    3.1324   -3.4897    3.1022 C   0  0
    3.3755   -3.0074    0.7494 C   0  0
    5.2910   -2.7815    2.2323 C   0  0
    4.7317   -2.6932    0.9353 C   0  0
    2.5823   -3.4029    1.8268 C   0  0
   -0.1465    1.2164    0.3294 C   0  0  2  0  0  0
   -0.3007    0.7306   -1.1125 C   0  0  2  0  0  0
   -0.3392    0.0754    1.3283 C   0  0  1  0  0  0
    0.5600   -0.5133   -1.3563 C   0  0  2  0  0  0
    0.4953   -1.1419    0.9334 C   0  0  1  0  0  0
    0.3440   -1.1017   -2.7469 C   0  0
    0.1331   -2.2855    1.8048 N   0  0
    0.7141   -4.2050    0.1907 O   0  0
    0.4817   -4.6815    2.6490 O   0  0
    0.2236   -1.5306   -0.4097 O   0  0
   -1.1306    2.2234    0.5738 O   0  0
    0.0971    1.7881   -1.9813 O   0  0
    0.0647    0.5459    2.6129 O   0  0
    1.1806   -2.2348   -2.8920 O   0  0
    0.8773   -3.7941    1.5721 S   0  0
    8.4882   -1.8325    1.4979 H   0  0
    7.5089   -1.6782   -0.7730 H   0  0
    7.0982   -2.5285    3.4065 H   0  0
    5.1365   -2.2187   -1.1432 H   0  0
    4.8868   -3.2573    4.3104 H   0  0
    2.5228   -3.7963    3.9482 H   0  0
    2.9349   -2.9437   -0.2441 H   0  0
    0.8292    1.6982    0.4684 H   0  0
   -1.3599    0.5177   -1.3064 H   0  0
   -1.4052   -0.1787    1.3888 H   0  0
    1.6258   -0.2683   -1.2599 H   0  0
    1.5692   -0.9577    1.0604 H   0  0
    0.6015   -0.3641   -3.5072 H   0  0
   -0.6964   -1.4045   -2.8658 H   0  0
   -0.2257   -2.0358    2.7284 H   0  0
   -1.9916    1.8032    0.4308 H   0  0
    1.0225    1.9862   -1.7696 H   0  0
    0.9973    0.7979    2.5327 H   0  0
    1.0259   -2.5916   -3.7833 H   0  0
  1  2  1  0
  1  3  2  0
  2  4  2  0
  3  8  1  0
  4  9  1  0
  5  6  1  0
  5  8  2  0
  6 10  2  0
  7  9  2  0
  7 10  1  0
  8  9  1  0
 10 25  1  0
 11 12  1  0
 11 13  1  0
 11 21  1  0
 12 14  1  0
 12 22  1  0
 13 15  1  0
 13 23  1  0
 14 16  1  0
 14 20  1  0
 15 17  1  0
 15 20  1  0
 16 24  1  0
 17 25  1  0
 18 25  2  0
 19 25  2  0
  1 26  1  0
  2 27  1  0
  3 28  1  0
  4 29  1  0
  5 30  1  0
  6 31  1  0
  7 32  1  0
 11 33  1  0
 12 34  1  0
 13 35  1  0
 14 36  1  0
 15 37  1  0
 16 38  1  0
 16 39  1  0
 17 40  1  0
 21 41  1  0
 22 42  1  0
 23 43  1  0
 24 44  1  0
M  END
> <Name>
BR010285

$$$$
BR010286
  SciTegic05062102053D

 37 37  0  0  1  0            999 V2000
    0.5527   -3.2450   -1.9877 C   0  0
    1.4950   -1.1091   -1.1318 C   0  0  2  0  0  0
    0.9667   -0.4917    0.1688 C   0  0  2  0  0  0
    1.9710    0.5014    0.7608 C   0  0  1  0  0  0
    2.4496    1.4922   -0.3034 C   0  0  1  0  0  0
    2.0305   -0.0284   -2.0763 C   0  0  2  0  0  0
   -0.6363   -3.8386   -2.6676 C   0  0
    4.1315    1.2290   -4.4768 C   0  0
    3.5420    2.4187    0.2219 C   0  0
    0.4558   -1.8843   -1.7765 N   0  0
    2.7027   -0.6673   -3.2338 N   0  0
    1.4922   -3.9667   -1.6742 O   0  0
    1.5538    0.9843   -4.8591 O   0  0
    3.0978   -0.7943   -5.7587 O   0  0
    2.9971    0.7865   -1.4177 O   0  0
    0.7399   -1.5391    1.1138 O   0  0
    1.3305    1.1908    1.8311 O   0  0
    3.9337    3.2910   -0.8223 O   0  0
    2.7357    0.1554   -4.7241 S   0  0
    2.2904   -1.8249   -0.8862 H   0  0
    0.0000   -0.0002   -0.0013 H   0  0
    2.8168   -0.0575    1.1815 H   0  0
    1.6167    2.1205   -0.6458 H   0  0
    1.2220    0.6029   -2.4658 H   0  0
   -0.5388   -3.8344   -3.7651 H   0  0
   -0.7940   -4.8941   -2.3934 H   0  0
   -1.5961   -3.3390   -2.4601 H   0  0
    4.2691    1.8282   -5.3783 H   0  0
    3.9247    1.8706   -3.6190 H   0  0
    5.0116    0.6119   -4.2898 H   0  0
    4.4030    1.8331    0.5444 H   0  0
    3.1620    3.0054    1.0582 H   0  0
   -0.3824   -1.4051   -2.0875 H   0  0
    3.5321   -1.2105   -2.9751 H   0  0
    1.5954   -1.9726    1.2509 H   0  0
    0.5639    1.6445    1.4479 H   0  0
    4.6285    3.8700   -0.4650 H   0  0
  1  7  1  0
  1 10  1  0
  1 12  2  0
  2  3  1  0
  2  6  1  0
  2 10  1  0
  3  4  1  0
  3 16  1  0
  4  5  1  0
  4 17  1  0
  5  9  1  0
  5 15  1  0
  6 11  1  0
  6 15  1  0
  8 19  1  0
  9 18  1  0
 11 19  1  0
 13 19  2  0
 14 19  2  0
  2 20  1  0
  3 21  1  0
  4 22  1  0
  5 23  1  0
  6 24  1  0
  7 25  1  0
  7 26  1  0
  7 27  1  0
  8 28  1  0
  8 29  1  0
  8 30  1  0
  9 31  1  0
  9 32  1  0
 10 33  1  0
 11 34  1  0
 16 35  1  0
 17 36  1  0
 18 37  1  0
M  END
> <Name>
BR010286

$$$$
BR010287
  SciTegic05062102053D

 45 46  0  0  1  0            999 V2000
    4.2208    2.5287   -6.9492 C   0  0
    2.9096    2.4290   -7.2116 C   0  0
    4.7742    2.0841   -5.6902 C   0  0
    3.9890    1.5568   -4.7376 C   0  0
    1.9917    1.8728   -6.2467 C   0  0
    0.5527   -3.2450   -1.9877 C   0  0
    2.5027    1.4099   -4.9153 C   0  0
    1.4950   -1.1091   -1.1318 C   0  0  2  0  0  0
    0.9667   -0.4917    0.1688 C   0  0  2  0  0  0
    1.9710    0.5014    0.7608 C   0  0  1  0  0  0
    2.4496    1.4922   -0.3034 C   0  0  1  0  0  0
    2.0305   -0.0284   -2.0763 C   0  0  2  0  0  0
   -0.6363   -3.8386   -2.6676 C   0  0
    3.5420    2.4187    0.2219 C   0  0
    0.4558   -1.8843   -1.7765 N   0  0
    2.7027   -0.6673   -3.2338 N   0  0
    1.4922   -3.9667   -1.6742 O   0  0
    0.6992   -0.4861   -4.8594 O   0  0
    2.9979   -1.0108   -5.7521 O   0  0
    2.9971    0.7865   -1.4177 O   0  0
    0.7399   -1.5391    1.1138 O   0  0
    1.3305    1.1908    1.8311 O   0  0
    3.9337    3.2910   -0.8223 O   0  0
    2.1392   -0.3272   -4.8041 S   0  0
    4.9016    2.9492   -7.6812 H   0  0
    2.5056    2.7679   -8.1589 H   0  0
    5.8423    2.1902   -5.5367 H   0  0
    4.4330    1.2409   -3.7975 H   0  0
    0.9340    1.8496   -6.4824 H   0  0
    1.9695    1.9143   -4.1045 H   0  0
    2.2904   -1.8249   -0.8862 H   0  0
    0.0000   -0.0002   -0.0013 H   0  0
    2.8168   -0.0575    1.1815 H   0  0
    1.6167    2.1205   -0.6458 H   0  0
    1.2220    0.6029   -2.4658 H   0  0
   -0.5388   -3.8344   -3.7651 H   0  0
   -0.7940   -4.8941   -2.3934 H   0  0
   -1.5961   -3.3390   -2.4601 H   0  0
    4.4030    1.8331    0.5444 H   0  0
    3.1620    3.0054    1.0582 H   0  0
   -0.3824   -1.4051   -2.0875 H   0  0
    3.7134   -0.7791   -3.1079 H   0  0
    1.5954   -1.9726    1.2509 H   0  0
    0.5639    1.6445    1.4479 H   0  0
    4.6285    3.8700   -0.4650 H   0  0
  1  2  2  0
  1  3  1  0
  2  5  1  0
  3  4  2  0
  4  7  1  0
  5  7  2  0
  6 13  1  0
  6 15  1  0
  6 17  2  0
  7 24  1  0
  8  9  1  0
  8 12  1  0
  8 15  1  0
  9 10  1  0
  9 21  1  0
 10 11  1  0
 10 22  1  0
 11 14  1  0
 11 20  1  0
 12 16  1  0
 12 20  1  0
 14 23  1  0
 16 24  1  0
 18 24  2  0
 19 24  2  0
  1 25  1  0
  2 26  1  0
  3 27  1  0
  4 28  1  0
  5 29  1  0
  7 30  1  0
  8 31  1  0
  9 32  1  0
 10 33  1  0
 11 34  1  0
 12 35  1  0
 13 36  1  0
 13 37  1  0
 13 38  1  0
 14 39  1  0
 14 40  1  0
 15 41  1  0
 16 42  1  0
 21 43  1  0
 22 44  1  0
 23 45  1  0
M  END
> <Name>
BR010287

$$$$
BR010288
  SciTegic05062102053D

 47 48  0  0  1  0            999 V2000
    5.6824    2.8443   -4.0966 C   0  0
    3.5810    3.9221   -3.5875 C   0  0
    5.0023    1.6695   -4.4169 C   0  0
    2.9008    2.7473   -3.9078 C   0  0
    4.9718    3.9707   -3.6818 C   0  0
    3.6115    1.6209   -4.3226 C   0  0
    0.5527   -3.2450   -1.9877 C   0  0
    1.4950   -1.1091   -1.1318 C   0  0  2  0  0  0
    0.9667   -0.4917    0.1688 C   0  0  2  0  0  0
    1.9710    0.5014    0.7608 C   0  0  1  0  0  0
    2.4496    1.4922   -0.3034 C   0  0  1  0  0  0
    2.0305   -0.0284   -2.0763 C   0  0  2  0  0  0
    5.6988    5.2268   -3.3385 C   0  0
   -0.6363   -3.8386   -2.6676 C   0  0
    3.5420    2.4187    0.2219 C   0  0
    0.4558   -1.8843   -1.7765 N   0  0
    2.7027   -0.6673   -3.2338 N   0  0
    1.4922   -3.9667   -1.6742 O   0  0
    1.4012    0.4916   -5.1284 O   0  0
    3.6017   -0.6158   -5.6341 O   0  0
    2.9971    0.7865   -1.4177 O   0  0
    0.7399   -1.5391    1.1138 O   0  0
    1.3305    1.1908    1.8311 O   0  0
    4.6394    1.6286    0.6419 O   0  0
    2.7491    0.1328   -4.7306 S   0  0
    6.7661    2.8727   -4.1728 H   0  0
    3.0190    4.7947   -3.2648 H   0  0
    5.5656    0.7975   -4.7385 H   0  0
    1.8171    2.7203   -3.8304 H   0  0
    2.2904   -1.8249   -0.8862 H   0  0
    0.0000   -0.0002   -0.0013 H   0  0
    2.8168   -0.0575    1.1815 H   0  0
    1.6167    2.1205   -0.6458 H   0  0
    1.2220    0.6029   -2.4658 H   0  0
    5.8083    5.8599   -4.2276 H   0  0
    5.1651    5.7983   -2.5681 H   0  0
    6.6986    5.0120   -2.9390 H   0  0
   -0.5388   -3.8344   -3.7651 H   0  0
   -0.7940   -4.8941   -2.3934 H   0  0
   -1.5961   -3.3390   -2.4601 H   0  0
    3.1668    2.9934    1.0687 H   0  0
    3.8669    3.0962   -0.5676 H   0  0
   -0.3824   -1.4051   -2.0875 H   0  0
    3.4325   -1.3421   -2.9978 H   0  0
    1.5954   -1.9726    1.2509 H   0  0
    0.5639    1.6445    1.4479 H   0  0
    5.3209    2.2389    0.9716 H   0  0
  1  3  2  0
  1  5  1  0
  2  4  1  0
  2  5  2  0
  3  6  1  0
  4  6  2  0
  5 13  1  0
  6 25  1  0
  7 14  1  0
  7 16  1  0
  7 18  2  0
  8  9  1  0
  8 12  1  0
  8 16  1  0
  9 10  1  0
  9 22  1  0
 10 11  1  0
 10 23  1  0
 11 15  1  0
 11 21  1  0
 12 17  1  0
 12 21  1  0
 15 24  1  0
 17 25  1  0
 19 25  2  0
 20 25  2  0
  1 26  1  0
  2 27  1  0
  3 28  1  0
  4 29  1  0
  8 30  1  0
  9 31  1  0
 10 32  1  0
 11 33  1  0
 12 34  1  0
 13 35  1  0
 13 36  1  0
 13 37  1  0
 14 38  1  0
 14 39  1  0
 14 40  1  0
 15 41  1  0
 15 42  1  0
 16 43  1  0
 17 44  1  0
 22 45  1  0
 23 46  1  0
 24 47  1  0
M  END
> <Name>
BR010288

$$$$
BR010289
  SciTegic05062102053D

 50 52  0  0  1  0            999 V2000
    7.7083    1.7253   -3.3465 C   0  0
    7.1029    0.5109   -3.6557 C   0  0
    3.4684    4.0126   -4.0270 C   0  0
    6.9598    2.9025   -3.3602 C   0  0
    5.7466    0.4691   -3.9798 C   0  0
    4.8247    4.0543   -3.7029 C   0  0
    2.8629    2.7982   -4.3363 C   0  0
    5.5935    2.8792   -3.6841 C   0  0
    4.9778    1.6443   -3.9986 C   0  0
    3.6115    1.6209   -4.3226 C   0  0
    0.5527   -3.2450   -1.9877 C   0  0
    1.4950   -1.1091   -1.1318 C   0  0  2  0  0  0
    0.9667   -0.4917    0.1688 C   0  0  2  0  0  0
    1.9710    0.5014    0.7608 C   0  0  1  0  0  0
    2.4496    1.4922   -0.3034 C   0  0  1  0  0  0
    2.0305   -0.0284   -2.0763 C   0  0  2  0  0  0
   -0.6363   -3.8386   -2.6676 C   0  0
    3.5420    2.4187    0.2219 C   0  0
    0.4558   -1.8843   -1.7765 N   0  0
    2.7027   -0.6673   -3.2338 N   0  0
    1.4922   -3.9667   -1.6742 O   0  0
    1.4012    0.4916   -5.1284 O   0  0
    3.6017   -0.6158   -5.6341 O   0  0
    2.9971    0.7865   -1.4177 O   0  0
    0.7399   -1.5391    1.1138 O   0  0
    1.3305    1.1908    1.8311 O   0  0
    4.6394    1.6286    0.6419 O   0  0
    2.7491    0.1328   -4.7306 S   0  0
    8.7643    1.7568   -3.0945 H   0  0
    7.6866   -0.4050   -3.6438 H   0  0
    2.8844    4.9283   -4.0362 H   0  0
    7.4544    3.8403   -3.1156 H   0  0
    5.3188   -0.5021   -4.2135 H   0  0
    5.2776    5.0144   -3.4640 H   0  0
    1.8051    2.7826   -4.5858 H   0  0
    2.2904   -1.8249   -0.8862 H   0  0
    0.0000   -0.0002   -0.0013 H   0  0
    2.8168   -0.0575    1.1815 H   0  0
    1.6167    2.1205   -0.6458 H   0  0
    1.2220    0.6029   -2.4658 H   0  0
   -0.5388   -3.8344   -3.7651 H   0  0
   -0.7940   -4.8941   -2.3934 H   0  0
   -1.5961   -3.3390   -2.4601 H   0  0
    3.1668    2.9934    1.0687 H   0  0
    3.8669    3.0962   -0.5676 H   0  0
   -0.3824   -1.4051   -2.0875 H   0  0
    3.4325   -1.3421   -2.9978 H   0  0
    1.5954   -1.9726    1.2509 H   0  0
    0.5639    1.6445    1.4479 H   0  0
    5.3209    2.2389    0.9716 H   0  0
  1  2  1  0
  1  4  2  0
  2  5  2  0
  3  6  1  0
  3  7  2  0
  4  8  1  0
  5  9  1  0
  6  8  2  0
  7 10  1  0
  8  9  1  0
  9 10  2  0
 10 28  1  0
 11 17  1  0
 11 19  1  0
 11 21  2  0
 12 13  1  0
 12 16  1  0
 12 19  1  0
 13 14  1  0
 13 25  1  0
 14 15  1  0
 14 26  1  0
 15 18  1  0
 15 24  1  0
 16 20  1  0
 16 24  1  0
 18 27  1  0
 20 28  1  0
 22 28  2  0
 23 28  2  0
  1 29  1  0
  2 30  1  0
  3 31  1  0
  4 32  1  0
  5 33  1  0
  6 34  1  0
  7 35  1  0
 12 36  1  0
 13 37  1  0
 14 38  1  0
 15 39  1  0
 16 40  1  0
 17 41  1  0
 17 42  1  0
 17 43  1  0
 18 44  1  0
 18 45  1  0
 19 46  1  0
 20 47  1  0
 25 48  1  0
 26 49  1  0
 27 50  1  0
M  END
> <Name>
BR010289

$$$$
BR010290
  SciTegic05062102053D

 50 52  0  0  1  0            999 V2000
    4.9422    6.3005   -2.9301 C   0  0
    3.5545    6.2532   -2.8356 C   0  0
    5.6528    5.1745   -3.3466 C   0  0
    2.8721    5.0796   -3.1573 C   0  0
    5.6815    2.8419   -4.0955 C   0  0
    4.9992    1.6683   -4.4171 C   0  0
    2.9008    2.7469   -3.9060 C   0  0
    4.9824    3.9848   -3.6744 C   0  0
    3.5712    3.9366   -3.5783 C   0  0
    3.6115    1.6209   -4.3226 C   0  0
    0.5527   -3.2450   -1.9877 C   0  0
    1.4950   -1.1091   -1.1318 C   0  0  2  0  0  0
    0.9667   -0.4917    0.1688 C   0  0  2  0  0  0
    1.9710    0.5014    0.7608 C   0  0  1  0  0  0
    2.4496    1.4922   -0.3034 C   0  0  1  0  0  0
    2.0305   -0.0284   -2.0763 C   0  0  2  0  0  0
   -0.6363   -3.8386   -2.6676 C   0  0
    3.5420    2.4187    0.2219 C   0  0
    0.4558   -1.8843   -1.7765 N   0  0
    2.7027   -0.6673   -3.2338 N   0  0
    1.4922   -3.9667   -1.6742 O   0  0
    1.4012    0.4916   -5.1284 O   0  0
    3.6017   -0.6158   -5.6341 O   0  0
    2.9971    0.7865   -1.4177 O   0  0
    0.7399   -1.5391    1.1138 O   0  0
    1.3305    1.1908    1.8311 O   0  0
    4.6394    1.6286    0.6419 O   0  0
    2.7491    0.1328   -4.7306 S   0  0
    5.4727    7.2149   -2.6804 H   0  0
    3.0021    7.1306   -2.5125 H   0  0
    6.7372    5.2343   -3.4134 H   0  0
    1.7873    5.0656   -3.0762 H   0  0
    6.7662    2.8566   -4.1777 H   0  0
    5.5621    0.7964   -4.7400 H   0  0
    1.8154    2.6987   -3.8366 H   0  0
    2.2904   -1.8249   -0.8862 H   0  0
    0.0000   -0.0002   -0.0013 H   0  0
    2.8168   -0.0575    1.1815 H   0  0
    1.6167    2.1205   -0.6458 H   0  0
    1.2220    0.6029   -2.4658 H   0  0
   -0.5388   -3.8344   -3.7651 H   0  0
   -0.7940   -4.8941   -2.3934 H   0  0
   -1.5961   -3.3390   -2.4601 H   0  0
    3.1668    2.9934    1.0687 H   0  0
    3.8669    3.0962   -0.5676 H   0  0
   -0.3824   -1.4051   -2.0875 H   0  0
    3.4325   -1.3421   -2.9978 H   0  0
    1.5954   -1.9726    1.2509 H   0  0
    0.5639    1.6445    1.4479 H   0  0
    5.3209    2.2389    0.9716 H   0  0
  1  2  1  0
  1  3  2  0
  2  4  2  0
  3  8  1  0
  4  9  1  0
  5  6  1  0
  5  8  2  0
  6 10  2  0
  7  9  2  0
  7 10  1  0
  8  9  1  0
 10 28  1  0
 11 17  1  0
 11 19  1  0
 11 21  2  0
 12 13  1  0
 12 16  1  0
 12 19  1  0
 13 14  1  0
 13 25  1  0
 14 15  1  0
 14 26  1  0
 15 18  1  0
 15 24  1  0
 16 20  1  0
 16 24  1  0
 18 27  1  0
 20 28  1  0
 22 28  2  0
 23 28  2  0
  1 29  1  0
  2 30  1  0
  3 31  1  0
  4 32  1  0
  5 33  1  0
  6 34  1  0
  7 35  1  0
 12 36  1  0
 13 37  1  0
 14 38  1  0
 15 39  1  0
 16 40  1  0
 17 41  1  0
 17 42  1  0
 17 43  1  0
 18 44  1  0
 18 45  1  0
 19 46  1  0
 20 47  1  0
 25 48  1  0
 26 49  1  0
 27 50  1  0
M  END
> <Name>
BR010290

$$$$
BR010291
  SciTegic05062102053D

 49 49  0  0  1  0            999 V2000
   -3.8786    0.1831    0.4094 C   0  0
   -0.1755    2.2555   -0.6665 C   0  0
   -3.2144   -3.1001    2.4003 C   0  0
    0.2192   -3.1813    4.4814 C   0  0
    3.7405    0.1509    0.0218 C   0  0
   -1.7081   -0.0228    1.3207 C   0  0  2  0  0  0
   -0.3325    0.5067    0.9149 C   0  0  2  0  0  0
   -1.6124   -1.4446    1.8743 C   0  0  1  0  0  0
    0.6841    0.2942    2.0390 C   0  0  2  0  0  0
   -0.5064   -1.5598    2.9232 C   0  0  2  0  0  0
   -4.6359    0.1566   -0.8836 C   0  0
   -0.3557    3.7343   -0.8302 C   0  0
   -4.5460   -3.3042    3.0571 C   0  0
    0.2738   -4.6589    4.7260 C   0  0
    4.0174   -0.7561   -1.1386 C   0  0
    2.0951    0.7014    1.6260 C   0  0
   -4.3963    0.3652    1.5030 O   0  0
    0.1773    1.5046   -1.5658 O   0  0
   -2.5573   -3.9973    1.8901 O   0  0
    0.6586   -2.3419    5.2557 O   0  0
    4.5330    0.9803    0.4475 O   0  0
    0.7321   -1.0878    2.3977 O   0  0
   -2.5518   -0.0238    0.1676 O   0  0
   -0.4633    1.8949    0.6192 O   0  0
   -2.8667   -1.7814    2.4653 O   0  0
   -0.3868   -2.9355    3.2830 O   0  0
    2.4874   -0.0908    0.5200 O   0  0
   -2.1795    0.6498    2.0483 H   0  0
   -0.0113   -0.0024   -0.0030 H   0  0
   -1.4443   -2.1540    1.0542 H   0  0
    0.4116    0.8883    2.9213 H   0  0
   -0.7689   -1.0046    3.8325 H   0  0
   -4.6836    1.1632   -1.3062 H   0  0
   -5.6408   -0.2396   -0.7169 H   0  0
   -4.1186   -0.4954   -1.5935 H   0  0
   -1.3833    3.9515   -1.1320 H   0  0
    0.3523    4.1146   -1.5709 H   0  0
   -0.1604    4.2313    0.1246 H   0  0
   -4.4063   -3.5224    4.1187 H   0  0
   -5.0821   -4.1187    2.5634 H   0  0
   -5.1400   -2.3904    2.9641 H   0  0
   -0.6257   -4.9804    5.2568 H   0  0
    1.1699   -4.9069    5.3005 H   0  0
    0.3192   -5.1837    3.7673 H   0  0
    4.4760   -1.6825   -0.7841 H   0  0
    4.6707   -0.2523   -1.8556 H   0  0
    3.0764   -1.0022   -1.6391 H   0  0
    2.7870    0.5352    2.4517 H   0  0
    2.1102    1.7530    1.3395 H   0  0
  1 11  1  0
  1 17  2  0
  1 23  1  0
  2 12  1  0
  2 18  2  0
  2 24  1  0
  3 13  1  0
  3 19  2  0
  3 25  1  0
  4 14  1  0
  4 20  2  0
  4 26  1  0
  5 15  1  0
  5 21  2  0
  5 27  1  0
  6  7  1  0
  6  8  1  0
  6 23  1  0
  7  9  1  0
  7 24  1  0
  8 10  1  0
  8 25  1  0
  9 16  1  0
  9 22  1  0
 10 22  1  0
 10 26  1  0
 16 27  1  0
  6 28  1  0
  7 29  1  0
  8 30  1  0
  9 31  1  0
 10 32  1  0
 11 33  1  0
 11 34  1  0
 11 35  1  0
 12 36  1  0
 12 37  1  0
 12 38  1  0
 13 39  1  0
 13 40  1  0
 13 41  1  0
 14 42  1  0
 14 43  1  0
 14 44  1  0
 15 45  1  0
 15 46  1  0
 15 47  1  0
 16 48  1  0
 16 49  1  0
M  END
> <Name>
BR010291

$$$$
BR010292
  SciTegic05062102053D

 30 30  0  0  1  0            999 V2000
    3.3045    0.5144    1.1875 C   0  0
    1.6326    1.3683   -0.4429 C   0  0  2  0  0  0
    0.2477    1.0609    0.1346 C   0  0  2  0  0  0
   -0.8328    1.9416   -0.4968 C   0  0  1  0  0  0
   -0.7278    1.9143   -2.0238 C   0  0  1  0  0  0
    1.5960    1.4133   -1.9744 C   0  0  1  0  0  0
    4.2379   -0.6186    1.4587 C   0  0
   -1.7127    2.8712   -2.6878 C   0  0
    2.5937    0.3847    0.0115 N   0  0
    3.2305    1.4407    1.9864 O   0  0
    0.5845    2.3138   -2.4232 O   0  0
    0.2770    1.3041    1.5425 O   0  0
   -2.1032    1.4519   -0.0757 O   0  0
    2.8687    1.8615   -2.4389 O   0  0
   -1.5421    2.7917   -4.0912 O   0  0
    1.9910    2.3282   -0.0497 H   0  0
   -0.0001    0.0000    0.0001 H   0  0
   -0.7252    2.9653   -0.1157 H   0  0
   -0.9332    0.9060   -2.4066 H   0  0
    1.4162    0.4154   -2.3950 H   0  0
    5.2403   -0.4484    1.0342 H   0  0
    4.4016   -0.7798    2.5364 H   0  0
    3.9187   -1.5968    1.0649 H   0  0
   -1.5191    3.8923   -2.3588 H   0  0
   -2.7346    2.5902   -2.4327 H   0  0
    2.7518   -0.4374   -0.5610 H   0  0
    0.5068    2.2387    1.6527 H   0  0
   -2.1633    0.5356   -0.3875 H   0  0
    2.8166    1.8801   -3.4066 H   0  0
   -2.1785    3.4084   -4.4915 H   0  0
  1  7  1  0
  1  9  1  0
  1 10  2  0
  2  3  1  0
  2  6  1  0
  2  9  1  0
  3  4  1  0
  3 12  1  0
  4  5  1  0
  4 13  1  0
  5  8  1  0
  5 11  1  0
  6 11  1  0
  6 14  1  0
  8 15  1  0
  2 16  1  0
  3 17  1  0
  4 18  1  0
  5 19  1  0
  6 20  1  0
  7 21  1  0
  7 22  1  0
  7 23  1  0
  8 24  1  0
  8 25  1  0
  9 26  1  0
 12 27  1  0
 13 28  1  0
 14 29  1  0
 15 30  1  0
M  END
> <Name>
BR010292

$$$$
BR010293
  SciTegic05062102053D

 30 30  0  0  1  0            999 V2000
    2.2556    2.7342   -0.1657 C   0  0
    2.1197    0.3130    0.3837 C   0  0  1  0  0  0
    0.6869    0.0414    0.8552 C   0  0  1  0  0  0
    0.6029   -1.2536    1.6675 C   0  0  2  0  0  0
    1.2888   -2.4050    0.9284 C   0  0  2  0  0  0
    2.7422   -0.9387   -0.2473 C   0  0  2  0  0  0
    2.2525    3.7034   -1.3010 C   0  0
    1.3225   -3.6842    1.7592 C   0  0
    2.1368    1.4152   -0.5552 N   0  0
    2.3597    3.1490    0.9826 O   0  0
    2.6418   -2.0588    0.6316 O   0  0
    0.2625    1.1312    1.6759 O   0  0
   -0.7747   -1.5493    1.8819 O   0  0
    4.1188   -0.6672   -0.5101 O   0  0
    1.9602   -4.6965    1.0022 O   0  0
    2.7300    0.6449    1.2332 H   0  0
    0.0004   -0.0002   -0.0003 H   0  0
    1.0664   -1.0883    2.6486 H   0  0
    0.7595   -2.6304   -0.0069 H   0  0
    2.2588   -1.1771   -1.2037 H   0  0
    1.2378    4.0488   -1.5563 H   0  0
    2.8230    4.6185   -1.0742 H   0  0
    2.6758    3.3249   -2.2451 H   0  0
    0.3067   -3.9990    1.9985 H   0  0
    1.8819   -3.5157    2.6794 H   0  0
    2.0578    1.2085   -1.5451 H   0  0
    0.8793    1.1669    2.4220 H   0  0
   -1.1749   -1.6516    1.0045 H   0  0
    4.4858   -1.4716   -0.9068 H   0  0
    1.9699   -5.4997    1.5503 H   0  0
  1  7  1  0
  1  9  1  0
  1 10  2  0
  2  3  1  0
  2  6  1  0
  2  9  1  0
  3  4  1  0
  3 12  1  0
  4  5  1  0
  4 13  1  0
  5  8  1  0
  5 11  1  0
  6 11  1  0
  6 14  1  0
  8 15  1  0
  2 16  1  0
  3 17  1  0
  4 18  1  0
  5 19  1  0
  6 20  1  0
  7 21  1  0
  7 22  1  0
  7 23  1  0
  8 24  1  0
  8 25  1  0
  9 26  1  0
 12 27  1  0
 13 28  1  0
 14 29  1  0
 15 30  1  0
M  END
> <Name>
BR010293

$$$$
BR010294
  SciTegic05062102053D

 43 43  0  0  1  0            999 V2000
    3.2069   -0.7974   -1.4769 C   0  0
    3.1071   -1.0096    1.8355 C   0  0
   -0.0360   -0.7819   -3.5609 C   0  0
   -0.4893   -1.4797    4.4930 C   0  0
    1.0626   -0.1470   -0.7267 C   0  0  2  0  0  0
    1.0961   -0.3429    0.7891 C   0  0  2  0  0  0
   -0.3600   -0.2830   -1.2740 C   0  0  1  0  0  0
    0.0398    0.5300    1.4744 C   0  0  2  0  0  0
   -1.3368    0.5541   -0.4536 C   0  0  2  0  0  0
    3.9531   -1.9276   -2.1186 C   0  0
    4.4501   -0.5043    2.2682 C   0  0
   -0.0625   -0.1715   -4.9294 C   0  0
   -0.8578   -2.9307    4.5614 C   0  0
   -0.0350    0.2745    2.9763 C   0  0
    3.7212    0.2619   -1.1443 O   0  0
    2.7249   -2.1612    1.9935 O   0  0
    0.2282   -1.9559   -3.3393 O   0  0
   -0.3162   -0.7697    5.4744 O   0  0
   -1.2516    0.2484    0.9328 O   0  0
    1.8944   -1.1399   -1.3301 O   0  0
    2.3999    0.0020    1.2505 O   0  0
   -0.3479    0.1653   -2.6284 O   0  0
   -0.3800   -1.0826    3.1863 O   0  0
   -3.1685    0.1685   -1.0400 Br  0  0
    1.4956    0.8246   -0.9962 H   0  0
    0.9312   -1.4042    1.0149 H   0  0
   -0.6433   -1.3432   -1.2773 H   0  0
    0.2681    1.5941    1.3286 H   0  0
   -1.2107    1.6298   -0.6205 H   0  0
    4.3433   -2.5985   -1.3494 H   0  0
    4.7654   -1.5335   -2.7346 H   0  0
    3.2722   -2.4930   -2.7616 H   0  0
    5.1736   -0.6347    1.4596 H   0  0
    4.7750   -1.0364    3.1658 H   0  0
    4.3780    0.5617    2.5029 H   0  0
   -1.0645   -0.2611   -5.3561 H   0  0
    0.6744   -0.6635   -5.5693 H   0  0
    0.1925    0.8898   -4.8581 H   0  0
   -1.9453   -3.0372    4.5713 H   0  0
   -0.4179   -3.3835    5.4536 H   0  0
   -0.4650   -3.4465    3.6803 H   0  0
   -0.7960    0.9132    3.4251 H   0  0
    0.9322    0.4757    3.4371 H   0  0
  1 10  1  0
  1 15  2  0
  1 20  1  0
  2 11  1  0
  2 16  2  0
  2 21  1  0
  3 12  1  0
  3 17  2  0
  3 22  1  0
  4 13  1  0
  4 18  2  0
  4 23  1  0
  5  6  1  0
  5  7  1  0
  5 20  1  0
  6  8  1  0
  6 21  1  0
  7  9  1  0
  7 22  1  0
  8 14  1  0
  8 19  1  0
  9 19  1  0
  9 24  1  0
 14 23  1  0
  5 25  1  0
  6 26  1  0
  7 27  1  0
  8 28  1  0
  9 29  1  0
 10 30  1  0
 10 31  1  0
 10 32  1  0
 11 33  1  0
 11 34  1  0
 11 35  1  0
 12 36  1  0
 12 37  1  0
 12 38  1  0
 13 39  1  0
 13 40  1  0
 13 41  1  0
 14 42  1  0
 14 43  1  0
M  END
> <Name>
BR010294

$$$$
BR010295
  SciTegic05062102053D

 29 29  0  0  1  0            999 V2000
    0.5467    3.3767    1.7447 C   0  0
    0.2960    1.1926    0.5829 C   0  0  1  0  0  0
   -1.0112    0.3986    0.7048 C   0  0  1  0  0  0
   -0.7985   -1.0797    0.3644 C   0  0  2  0  0  0
   -0.0454   -1.2335   -0.9595 C   0  0  2  0  0  0
    0.9936    0.8864   -0.7463 C   0  0  2  0  0  0
    0.1445    4.8131    1.6876 C   0  0
    0.2929   -2.6897   -1.2646 C   0  0
    0.0307    2.6090    0.7196 N   0  0
    1.2742    2.9885    2.6511 O   0  0
    1.1882   -0.5162   -0.9068 O   0  0
   -1.4844    0.4996    2.0492 O   0  0
   -2.0784   -1.7016    0.2842 O   0  0
    0.9749   -2.7435   -2.5042 O   0  0
    2.6040    1.6621   -0.8106 Cl  0  0
    0.9478    0.9230    1.4238 H   0  0
   -1.7873    0.8300    0.0597 H   0  0
   -0.2460   -1.5561    1.1845 H   0  0
   -0.6506   -0.8518   -1.7924 H   0  0
    0.4276    1.2783   -1.5994 H   0  0
   -0.7887    5.0108    2.2392 H   0  0
    0.8968    5.4787    2.1403 H   0  0
   -0.0263    5.2149    0.6760 H   0  0
   -0.6222   -3.2780   -1.3309 H   0  0
    0.9348   -3.0944   -0.4822 H   0  0
   -0.5621    3.0587    0.0299 H   0  0
   -0.7901    0.1250    2.6114 H   0  0
   -2.5659   -1.2408   -0.4160 H   0  0
    1.1796   -3.6783   -2.6772 H   0  0
  1  7  1  0
  1  9  1  0
  1 10  2  0
  2  3  1  0
  2  6  1  0
  2  9  1  0
  3  4  1  0
  3 12  1  0
  4  5  1  0
  4 13  1  0
  5  8  1  0
  5 11  1  0
  6 11  1  0
  6 15  1  0
  8 14  1  0
  2 16  1  0
  3 17  1  0
  4 18  1  0
  5 19  1  0
  6 20  1  0
  7 21  1  0
  7 22  1  0
  7 23  1  0
  8 24  1  0
  8 25  1  0
  9 26  1  0
 12 27  1  0
 13 28  1  0
 14 29  1  0
M  END
> <Name>
BR010295

$$$$
BR010296
  SciTegic05062102053D

 45 45  0  0  1  0            999 V2000
    1.9272    2.0594   -2.2101 C   0  0
   -1.0238    3.3169   -1.3469 C   0  0
    3.5628   -0.7615   -0.1454 C   0  0
   -3.5488    2.2694    2.2310 C   0  0
    0.8054    0.5099   -0.8228 C   0  0  2  0  0  0
   -0.4954    1.2058   -0.4260 C   0  0  2  0  0  0
    1.2446   -0.5041    0.2335 C   0  0  1  0  0  0
   -1.5511    0.1745   -0.0166 C   0  0  2  0  0  0
    0.0902   -1.4275    0.6392 C   0  0  1  0  0  0
    3.0263    3.0783   -2.2137 C   0  0
   -1.5127    3.9834   -2.5970 C   0  0
    4.5742   -1.6730   -0.7717 C   0  0
   -3.0611    3.0465    3.4161 C   0  0
   -2.8275    0.8301    0.5012 C   0  0
   -0.9540   -3.9585    2.4818 N   0  5
    0.5936   -2.3339    1.6854 N   0  0
   -0.2181   -3.1774    2.0954 N   0  3
    1.2426    1.7867   -3.1869 O   0  0
   -0.7396    3.9148   -0.3178 O   0  0
    3.8435    0.2816    0.4294 O   0  0
   -4.7152    2.2423    1.8622 O   0  0
   -1.0430   -0.6492    1.0350 O   0  0
    1.8220    1.5039   -0.9685 O   0  0
   -0.9496    1.9669   -1.5419 O   0  0
    2.3107   -1.2765   -0.3186 O   0  0
   -2.5049    1.6081    1.6394 O   0  0
    0.6994    0.0309   -1.8044 H   0  0
   -0.2913    1.9042    0.3958 H   0  0
    1.6422    0.0271    1.1078 H   0  0
   -1.8249   -0.4570   -0.8720 H   0  0
   -0.2000   -2.0633   -0.2065 H   0  0
    2.6243    4.0584   -1.9455 H   0  0
    3.4981    3.1115   -3.1990 H   0  0
    3.7830    2.7979   -1.4752 H   0  0
   -0.6640    4.2484   -3.2323 H   0  0
   -2.0944    4.8723   -2.3402 H   0  0
   -2.1581    3.2927   -3.1475 H   0  0
    4.9121   -2.4108   -0.0398 H   0  0
    5.4178   -1.0885   -1.1476 H   0  0
    4.1150   -2.2010   -1.6125 H   0  0
   -3.1127    2.4254    4.3137 H   0  0
   -3.6613    3.9516    3.5386 H   0  0
   -2.0197    3.3393    3.2541 H   0  0
   -3.5516    0.0650    0.7813 H   0  0
   -3.2529    1.4753   -0.2675 H   0  0
  1 10  1  0
  1 18  2  0
  1 23  1  0
  2 11  1  0
  2 19  2  0
  2 24  1  0
  3 12  1  0
  3 20  2  0
  3 25  1  0
  4 13  1  0
  4 21  2  0
  4 26  1  0
  5  6  1  0
  5  7  1  0
  5 23  1  0
  6  8  1  0
  6 24  1  0
  7  9  1  0
  7 25  1  0
  8 14  1  0
  8 22  1  0
  9 16  1  0
  9 22  1  0
 14 26  1  0
 15 17  2  0
 16 17  2  0
  5 27  1  0
  6 28  1  0
  7 29  1  0
  8 30  1  0
  9 31  1  0
 10 32  1  0
 10 33  1  0
 10 34  1  0
 11 35  1  0
 11 36  1  0
 11 37  1  0
 12 38  1  0
 12 39  1  0
 12 40  1  0
 13 41  1  0
 13 42  1  0
 13 43  1  0
 14 44  1  0
 14 45  1  0
M  CHG  2  15  -1  17   1
M  END
> <Name>
BR010296

$$$$
BR010297
  SciTegic05062102053D

 46 46  0  0  1  0            999 V2000
   -0.0157    3.7169   -0.7066 C   0  0
   -3.2126    1.3240   -0.9005 C   0  0
   -3.2835   -1.6586    0.6035 C   0  0
   -0.1279   -3.5298    3.2064 C   0  0
    0.3045    1.3231   -0.1182 C   0  0  1  0  0  0
   -1.0019    0.6052   -0.4764 C   0  0  1  0  0  0
   -1.1396   -0.7206    0.2742 C   0  0  2  0  0  0
    0.1348   -1.5549    0.1304 C   0  0  2  0  0  0
    1.5086    0.3696   -0.1965 C   0  0  1  0  0  0
    0.3079    4.7471   -1.7372 C   0  0
   -4.2734    2.2655   -0.4164 C   0  0
   -4.3824   -2.3965   -0.0992 C   0  0
   -0.2822   -3.0118    4.6042 C   0  0
    0.0830   -2.8357    0.9575 C   0  0
    4.7595   -0.0944    0.1375 N   0  5
    2.7112    1.1165    0.2142 N   0  0
    3.7742    0.4792    0.1717 N   0  3
    0.4975    2.4666   -0.9853 N   0  0
   -0.6817    4.0307    0.2731 O   0  0
   -3.3511    0.5660   -1.8510 O   0  0
   -3.3233   -1.3294    1.7813 O   0  0
   -0.0689   -4.7175    2.9184 O   0  0
    1.2576   -0.8007    0.5898 O   0  0
   -2.0985    1.4513   -0.1235 O   0  0
   -2.2573   -1.4203   -0.2662 O   0  0
   -0.0643   -2.4857    2.3215 O   0  0
    0.2220    1.7308    0.8978 H   0  0
   -1.0650    0.4374   -1.5595 H   0  0
   -1.3539   -0.5118    1.3302 H   0  0
    0.2926   -1.8419   -0.9174 H   0  0
    1.6744    0.0538   -1.2339 H   0  0
   -0.4530    4.8000   -2.5323 H   0  0
    0.3584    5.7634   -1.3144 H   0  0
    1.2660    4.6039   -2.2621 H   0  0
   -4.8932    1.7711    0.3356 H   0  0
   -4.8835    2.6015   -1.2587 H   0  0
   -3.8010    3.1397    0.0411 H   0  0
   -5.0859   -1.6845   -0.5378 H   0  0
   -4.8929   -3.0593    0.6040 H   0  0
   -3.9553   -3.0042   -0.9023 H   0  0
    0.7020   -2.8578    5.0534 H   0  0
   -0.8711   -3.7156    5.1977 H   0  0
   -0.8080   -2.0529    4.5796 H   0  0
    1.0067   -3.3998    0.8279 H   0  0
   -0.7664   -3.4446    0.6479 H   0  0
    1.0346    2.3430   -1.8364 H   0  0
  1 10  1  0
  1 18  1  0
  1 19  2  0
  2 11  1  0
  2 20  2  0
  2 24  1  0
  3 12  1  0
  3 21  2  0
  3 25  1  0
  4 13  1  0
  4 22  2  0
  4 26  1  0
  5  6  1  0
  5  9  1  0
  5 18  1  0
  6  7  1  0
  6 24  1  0
  7  8  1  0
  7 25  1  0
  8 14  1  0
  8 23  1  0
  9 16  1  0
  9 23  1  0
 14 26  1  0
 15 17  2  0
 16 17  2  0
  5 27  1  0
  6 28  1  0
  7 29  1  0
  8 30  1  0
  9 31  1  0
 10 32  1  0
 10 33  1  0
 10 34  1  0
 11 35  1  0
 11 36  1  0
 11 37  1  0
 12 38  1  0
 12 39  1  0
 12 40  1  0
 13 41  1  0
 13 42  1  0
 13 43  1  0
 14 44  1  0
 14 45  1  0
 18 46  1  0
M  CHG  2  15  -1  17   1
M  END
> <Name>
BR010297

$$$$
BR010298
  SciTegic05062102053D

 46 46  0  0  1  0            999 V2000
    0.1433    1.5264   -3.2394 C   0  0
    3.0938    1.0064   -1.8086 C   0  0
   -2.9875   -0.3525   -2.0632 C   0  0
    4.1134   -1.8914    1.4848 C   0  0
   -0.1958    0.5880   -1.0974 C   0  0  2  0  0  0
    1.2090    0.3256   -0.5564 C   0  0  2  0  0  0
   -1.2223   -0.3732   -0.4924 C   0  0  1  0  0  0
    1.1911    0.2603    0.9737 C   0  0  2  0  0  0
   -1.0869   -0.4251    1.0335 C   0  0  1  0  0  0
    0.1311    1.1957   -4.7011 C   0  0
    3.8972    2.2117   -2.1933 C   0  0
   -4.3490    0.2193   -2.3187 C   0  0
    4.3573   -3.2439    0.8869 C   0  0
    2.5509   -0.1200    1.5511 C   0  0
   -2.0729   -1.4163    1.5593 N   0  3
    0.4004    2.6350   -2.7898 O   0  0
    3.3468   -0.1322   -2.1781 O   0  0
   -2.4062   -1.1073   -2.8310 O   0  0
    4.8908   -1.3269    2.2424 O   0  0
    0.2564   -0.7304    1.4061 O   0  0
   -0.1714    0.4135   -2.5159 O   0  0
    2.0591    1.3804   -0.9988 O   0  0
   -2.5173    0.0972   -0.8629 O   0  0
    2.9083   -1.3984    1.0584 O   0  0
   -0.4856    1.6315   -0.9201 H   0  0
    1.5873   -0.6120   -0.9836 H   0  0
   -1.0845   -1.3683   -0.9349 H   0  0
    0.9097    1.2334    1.3973 H   0  0
   -1.3850    0.5270    1.4890 H   0  0
    1.1239    0.8633   -5.0144 H   0  0
   -0.1821    2.0704   -5.2767 H   0  0
   -0.5814    0.3861   -4.8838 H   0  0
    3.4983    2.6449   -3.1138 H   0  0
    4.9462    1.9327   -2.3215 H   0  0
    3.8312    2.9603   -1.3985 H   0  0
   -5.1135   -0.4469   -1.9114 H   0  0
   -4.4954    0.3634   -3.3922 H   0  0
   -4.4332    1.1908   -1.8229 H   0  0
    3.9528   -4.0181    1.5434 H   0  0
    5.4287   -3.3924    0.7302 H   0  0
    3.8522   -3.3088   -0.0812 H   0  0
    2.4964   -0.1556    2.6392 H   0  0
    3.3024    0.6075    1.2441 H   0  0
   -2.5564   -1.0393    2.3769 H   0  0
   -1.5989   -2.2798    1.8323 H   0  0
   -2.7691   -1.6401    0.8452 H   0  0
  1 10  1  0
  1 16  2  0
  1 21  1  0
  2 11  1  0
  2 17  2  0
  2 22  1  0
  3 12  1  0
  3 18  2  0
  3 23  1  0
  4 13  1  0
  4 19  2  0
  4 24  1  0
  5  6  1  0
  5  7  1  0
  5 21  1  0
  6  8  1  0
  6 22  1  0
  7  9  1  0
  7 23  1  0
  8 14  1  0
  8 20  1  0
  9 15  1  0
  9 20  1  0
 14 24  1  0
  5 25  1  0
  6 26  1  0
  7 27  1  0
  8 28  1  0
  9 29  1  0
 10 30  1  0
 10 31  1  0
 10 32  1  0
 11 33  1  0
 11 34  1  0
 11 35  1  0
 12 36  1  0
 12 37  1  0
 12 38  1  0
 13 39  1  0
 13 40  1  0
 13 41  1  0
 14 42  1  0
 14 43  1  0
 15 44  1  0
 15 45  1  0
 15 46  1  0
M  CHG  1  15   1
M  END
> <Name>
BR010298

$$$$
BR010299
  SciTegic05062102053D

 47 47  0  0  1  0            999 V2000
    3.0898   -0.4658   -2.1439 C   0  0
   -0.6338   -1.3527   -3.2674 C   0  0
   -3.2982   -0.0602   -1.7236 C   0  0
   -3.3786    2.9337    1.6325 C   0  0
    1.2646    0.0156   -0.5255 C   0  0  1  0  0  0
   -0.0094   -0.6041   -1.1149 C   0  0  1  0  0  0
   -1.2665    0.0329   -0.5206 C   0  0  2  0  0  0
   -1.1922    0.0597    1.0069 C   0  0  2  0  0  0
    1.1852    0.0734    1.0076 C   0  0  1  0  0  0
    4.2592   -1.3591   -2.3946 C   0  0
   -0.5548   -0.9993   -4.7217 C   0  0
   -4.4197   -0.9805   -2.0996 C   0  0
   -3.2481    4.3120    1.0588 C   0  0
   -2.3754    0.7942    1.6299 C   0  0
    2.4241   -0.7314   -0.9638 N   0  0
    2.4277    0.7289    1.5156 N   0  3
    2.8088    0.4047   -2.9594 O   0  0
   -1.1826   -2.3572   -2.8353 O   0  0
   -3.2276    1.1111   -2.0701 O   0  0
   -4.2636    2.5946    2.4064 O   0  0
   -0.0074    0.7390    1.4241 O   0  0
   -0.0084   -0.3916   -2.5281 O   0  0
   -2.3917   -0.7288   -0.9508 O   0  0
   -2.3718    2.1312    1.1639 O   0  0
    1.3837    1.0289   -0.9312 H   0  0
   -0.0197   -1.6901   -0.9558 H   0  0
   -1.3756    1.0478   -0.9242 H   0  0
   -1.1859   -0.9616    1.4100 H   0  0
    1.2019   -0.9336    1.4428 H   0  0
    3.9826   -2.2668   -2.9547 H   0  0
    5.0397   -0.8703   -2.9995 H   0  0
    4.7770   -1.7220   -1.4923 H   0  0
   -1.4203   -0.3950   -5.0041 H   0  0
   -0.5083   -1.9108   -5.3229 H   0  0
    0.3524   -0.4159   -4.9043 H   0  0
   -4.1835   -1.4891   -3.0375 H   0  0
   -5.3496   -0.4137   -2.1919 H   0  0
   -4.5482   -1.7341   -1.3172 H   0  0
   -2.6257    4.9283    1.7123 H   0  0
   -4.2383    4.7582    0.9365 H   0  0
   -2.7700    4.2523    0.0768 H   0  0
   -2.2851    0.7909    2.7162 H   0  0
   -3.3084    0.3129    1.3368 H   0  0
    2.7638   -1.4857   -0.3763 H   0  0
    2.7757    0.2406    2.3430 H   0  0
    2.2395    1.7014    1.7679 H   0  0
    3.1567    0.7146    0.7995 H   0  0
  1 10  1  0
  1 15  1  0
  1 17  2  0
  2 11  1  0
  2 18  2  0
  2 22  1  0
  3 12  1  0
  3 19  2  0
  3 23  1  0
  4 13  1  0
  4 20  2  0
  4 24  1  0
  5  6  1  0
  5  9  1  0
  5 15  1  0
  6  7  1  0
  6 22  1  0
  7  8  1  0
  7 23  1  0
  8 14  1  0
  8 21  1  0
  9 16  1  0
  9 21  1  0
 14 24  1  0
  5 25  1  0
  6 26  1  0
  7 27  1  0
  8 28  1  0
  9 29  1  0
 10 30  1  0
 10 31  1  0
 10 32  1  0
 11 33  1  0
 11 34  1  0
 11 35  1  0
 12 36  1  0
 12 37  1  0
 12 38  1  0
 13 39  1  0
 13 40  1  0
 13 41  1  0
 14 42  1  0
 14 43  1  0
 15 44  1  0
 16 45  1  0
 16 46  1  0
 16 47  1  0
M  CHG  1  16   1
M  END
> <Name>
BR010299

$$$$
BR010300
  SciTegic05062102053D

 50 50  0  0  1  0            999 V2000
    2.2556    2.7342   -0.1657 C   0  0
   -1.0739    1.4047    1.6455 C   0  0
   -1.1819   -1.5591    3.1857 C   0  0
    4.7139   -1.4782   -1.4328 C   0  0
    2.1701   -4.4846    3.8146 C   0  0
    2.1197    0.3130    0.3837 C   0  0  1  0  0  0
    0.6869    0.0414    0.8552 C   0  0  1  0  0  0
    0.6029   -1.2536    1.6675 C   0  0  2  0  0  0
    1.2888   -2.4050    0.9284 C   0  0  2  0  0  0
    2.7422   -0.9387   -0.2473 C   0  0  2  0  0  0
    2.2525    3.7034   -1.3010 C   0  0
   -1.3711    2.5633    2.5485 C   0  0
   -2.6436   -1.8820    3.2575 C   0  0
    6.1479   -1.0785   -1.6056 C   0  0
    2.9549   -4.0707    5.0225 C   0  0
    1.3225   -3.6842    1.7592 C   0  0
    2.1368    1.4152   -0.5552 N   0  0
    2.3597    3.1490    0.9826 O   0  0
   -1.9205    0.8110    0.9914 O   0  0
   -0.4797   -1.3405    4.1636 O   0  0
    4.1807   -2.3969   -2.0401 O   0  0
    1.7155   -5.6078    3.6447 O   0  0
    2.6418   -2.0588    0.6316 O   0  0
    0.2625    1.1312    1.6759 O   0  0
   -0.7747   -1.5493    1.8819 O   0  0
    4.1188   -0.6672   -0.5101 O   0  0
    2.0456   -3.4295    2.9496 O   0  0
    2.7300    0.6449    1.2332 H   0  0
    0.0004   -0.0002   -0.0003 H   0  0
    1.0664   -1.0883    2.6486 H   0  0
    0.7595   -2.6304   -0.0069 H   0  0
    2.2588   -1.1771   -1.2037 H   0  0
    1.2378    4.0488   -1.5563 H   0  0
    2.8230    4.6185   -1.0742 H   0  0
    2.6758    3.3249   -2.2451 H   0  0
   -1.5948    2.2013    3.5550 H   0  0
   -2.2109    3.1382    2.1500 H   0  0
   -0.4956    3.2170    2.5997 H   0  0
   -3.2296   -0.9607    3.2124 H   0  0
   -2.8576   -2.4303    4.1784 H   0  0
   -2.9181   -2.5118    2.4062 H   0  0
    6.2312   -0.3280   -2.3955 H   0  0
    6.7519   -1.9576   -1.8438 H   0  0
    6.5184   -0.6447   -0.6722 H   0  0
    4.0194   -4.2496    4.8524 H   0  0
    2.6062   -4.6234    5.8986 H   0  0
    2.8055   -3.0023    5.2034 H   0  0
    1.8173   -4.4781    1.1998 H   0  0
    0.3075   -3.9902    2.0126 H   0  0
    2.0578    1.2085   -1.5451 H   0  0
  1 11  1  0
  1 17  1  0
  1 18  2  0
  2 12  1  0
  2 19  2  0
  2 24  1  0
  3 13  1  0
  3 20  2  0
  3 25  1  0
  4 14  1  0
  4 21  2  0
  4 26  1  0
  5 15  1  0
  5 22  2  0
  5 27  1  0
  6  7  1  0
  6 10  1  0
  6 17  1  0
  7  8  1  0
  7 24  1  0
  8  9  1  0
  8 25  1  0
  9 16  1  0
  9 23  1  0
 10 23  1  0
 10 26  1  0
 16 27  1  0
  6 28  1  0
  7 29  1  0
  8 30  1  0
  9 31  1  0
 10 32  1  0
 11 33  1  0
 11 34  1  0
 11 35  1  0
 12 36  1  0
 12 37  1  0
 12 38  1  0
 13 39  1  0
 13 40  1  0
 13 41  1  0
 14 42  1  0
 14 43  1  0
 14 44  1  0
 15 45  1  0
 15 46  1  0
 15 47  1  0
 16 48  1  0
 16 49  1  0
 17 50  1  0
M  END
> <Name>
BR010300

$$$$
BR010301
  SciTegic05062102053D

 50 50  0  0  1  0            999 V2000
    3.3045    0.5144    1.1875 C   0  0
   -0.5547    0.5239    2.2914 C   0  0
   -2.8559    2.3188    0.6646 C   0  0
    3.1576    1.5698   -3.7410 C   0  0
   -2.2452    5.1729   -2.7375 C   0  0
    1.6326    1.3683   -0.4429 C   0  0  2  0  0  0
    0.2477    1.0609    0.1346 C   0  0  2  0  0  0
   -0.8328    1.9416   -0.4968 C   0  0  1  0  0  0
   -0.7278    1.9143   -2.0238 C   0  0  1  0  0  0
    1.5960    1.4133   -1.9744 C   0  0  1  0  0  0
    4.2379   -0.6186    1.4587 C   0  0
   -0.4179    0.8876    3.7388 C   0  0
   -4.1568    1.6725    1.0336 C   0  0
    4.5166    2.0983   -4.0872 C   0  0
   -1.8458    6.5013   -2.1700 C   0  0
   -1.7127    2.8712   -2.6878 C   0  0
    2.5937    0.3847    0.0115 N   0  0
    3.2305    1.4407    1.9864 O   0  0
   -1.3060   -0.3458    1.8716 O   0  0
   -2.5388    3.4549    0.9897 O   0  0
    2.4350    0.9707   -4.5258 O   0  0
   -3.1595    5.0156   -3.5353 O   0  0
    0.5845    2.3138   -2.4232 O   0  0
    0.2770    1.3041    1.5425 O   0  0
   -2.1032    1.4519   -0.0757 O   0  0
    2.8687    1.8615   -2.4389 O   0  0
   -1.4423    4.1844   -2.2324 O   0  0
    1.9910    2.3282   -0.0497 H   0  0
   -0.0001    0.0000    0.0001 H   0  0
   -0.7252    2.9653   -0.1157 H   0  0
   -0.9332    0.9060   -2.4066 H   0  0
    1.4162    0.4154   -2.3950 H   0  0
    5.2403   -0.4484    1.0342 H   0  0
    4.4016   -0.7798    2.5364 H   0  0
    3.9187   -1.5968    1.0649 H   0  0
    0.3644    0.2808    4.2014 H   0  0
   -1.3726    0.7409    4.2500 H   0  0
   -0.1370    1.9415    3.8229 H   0  0
   -4.9045    1.8779    0.2636 H   0  0
   -4.4924    2.0429    2.0055 H   0  0
   -4.0168    0.5899    1.1037 H   0  0
    4.4319    3.1200   -4.4654 H   0  0
    4.9885    1.4501   -4.8299 H   0  0
    5.1409    2.1096   -3.1890 H   0  0
   -2.4035    6.6944   -1.2503 H   0  0
   -2.0296    7.2890   -2.9050 H   0  0
   -0.7778    6.4884   -1.9339 H   0  0
   -2.7338    2.6000   -2.4192 H   0  0
   -1.5952    2.8343   -3.7709 H   0  0
    2.7518   -0.4374   -0.5610 H   0  0
  1 11  1  0
  1 17  1  0
  1 18  2  0
  2 12  1  0
  2 19  2  0
  2 24  1  0
  3 13  1  0
  3 20  2  0
  3 25  1  0
  4 14  1  0
  4 21  2  0
  4 26  1  0
  5 15  1  0
  5 22  2  0
  5 27  1  0
  6  7  1  0
  6 10  1  0
  6 17  1  0
  7  8  1  0
  7 24  1  0
  8  9  1  0
  8 25  1  0
  9 16  1  0
  9 23  1  0
 10 23  1  0
 10 26  1  0
 16 27  1  0
  6 28  1  0
  7 29  1  0
  8 30  1  0
  9 31  1  0
 10 32  1  0
 11 33  1  0
 11 34  1  0
 11 35  1  0
 12 36  1  0
 12 37  1  0
 12 38  1  0
 13 39  1  0
 13 40  1  0
 13 41  1  0
 14 42  1  0
 14 43  1  0
 14 44  1  0
 15 45  1  0
 15 46  1  0
 15 47  1  0
 16 48  1  0
 16 49  1  0
 17 50  1  0
M  END
> <Name>
BR010301

$$$$
BR010302
  SciTegic05062102053D

 48 51  0  0  1  0            999 V2000
   -0.3679    4.7388   -5.5875 C   0  0
    1.3179   -4.2847   -3.5706 C   0  0
    0.1300    5.7310   -4.7430 C   0  0
   -0.2459    3.3953   -5.2329 C   0  0
    1.1424   -4.7354   -2.2623 C   0  0
    1.2055   -2.9249   -3.8608 C   0  0
    0.7500    5.3797   -3.5439 C   0  0
    0.3742    3.0439   -4.0339 C   0  0
    0.8544   -3.8265   -1.2442 C   0  0
    0.9175   -2.0160   -2.8427 C   0  0
    0.8721    4.0361   -3.1893 C   0  0
    0.7419   -2.4667   -1.5344 C   0  0
    3.6324    3.1066   -0.9608 C   0  0
   -1.3541   -0.4216    0.6733 C   0  0
    1.5430    3.6553   -1.8924 C   0  0  2  0  0  0
    0.4302   -1.4829   -0.4335 C   0  0  2  0  0  0
    1.5114    2.0330   -0.1759 C   0  0  1  0  0  0
    0.8214    0.7434    0.2517 C   0  0  1  0  0  0
    3.0185    1.8399   -0.3733 C   0  0  2  0  0  0
   -0.6913    0.9271    0.4118 C   0  0  2  0  0  0
    2.9409    3.4838   -2.1476 O   0  0
   -0.9923   -1.3527   -0.3423 O   0  0
    0.9192    2.4629   -1.4047 O   0  0
    1.0799   -0.2468   -0.7473 O   0  0
    3.6385    1.5290    0.8649 O   0  0
   -0.9657    1.8184    1.4816 O   0  0
   -0.8518    5.0126   -6.5205 H   0  0
    1.5434   -4.9924   -4.3629 H   0  0
    0.0341    6.7772   -5.0184 H   0  0
   -0.6344    2.6226   -5.8897 H   0  0
    1.2309   -5.7940   -2.0359 H   0  0
    1.3432   -2.5735   -4.8790 H   0  0
    1.1352    6.1595   -2.8922 H   0  0
    0.4649    1.9946   -3.7659 H   0  0
    0.7190   -4.1868   -0.2278 H   0  0
    0.8317   -0.9585   -3.0781 H   0  0
    3.6112    3.9350   -0.2415 H   0  0
    4.6857    2.9390   -1.2106 H   0  0
   -1.0778   -0.8216    1.6570 H   0  0
   -2.4444   -0.3161    0.6758 H   0  0
    1.3892    4.4809   -1.1749 H   0  0
    0.8327   -1.8906    0.5108 H   0  0
    1.3225    2.7881    0.5970 H   0  0
    1.2681    0.4214    1.2004 H   0  0
    3.1881    1.0130   -1.0755 H   0  0
   -1.1050    1.3442   -0.5159 H   0  0
    4.5833    1.3959    0.6818 H   0  0
   -1.9311    1.9168    1.5264 H   0  0
  1  3  2  0
  1  4  1  0
  2  5  2  0
  2  6  1  0
  3  7  1  0
  4  8  2  0
  5  9  1  0
  6 10  2  0
  7 11  2  0
  8 11  1  0
  9 12  2  0
 10 12  1  0
 11 15  1  0
 12 16  1  0
 13 19  1  0
 13 21  1  0
 14 20  1  0
 14 22  1  0
 15 21  1  0
 15 23  1  0
 16 22  1  0
 16 24  1  0
 17 18  1  0
 17 19  1  0
 17 23  1  0
 18 20  1  0
 18 24  1  0
 19 25  1  0
 20 26  1  0
  1 27  1  0
  2 28  1  0
  3 29  1  0
  4 30  1  0
  5 31  1  0
  6 32  1  0
  7 33  1  0
  8 34  1  0
  9 35  1  0
 10 36  1  0
 13 37  1  0
 13 38  1  0
 14 39  1  0
 14 40  1  0
 15 41  1  0
 16 42  1  0
 17 43  1  0
 18 44  1  0
 19 45  1  0
 20 46  1  0
 25 47  1  0
 26 48  1  0
M  END
> <Name>
BR010302

$$$$
BR010303
  SciTegic05062102053D

 44 47  0  0  1  0            999 V2000
    2.3348    4.2632    5.3414 C   0  0
    5.5377   -0.6546   -2.0049 C   0  0
    1.4414    3.6310    6.2061 C   0  0
    2.6733    3.6641    4.1280 C   0  0
    4.5986   -1.2005   -2.8799 C   0  0
    5.1235   -0.1042   -0.7920 C   0  0
    0.8866    2.3997    5.8575 C   0  0
    2.1185    2.4328    3.7795 C   0  0
    3.2453   -1.1959   -2.5420 C   0  0
    3.7702   -0.0996   -0.4541 C   0  0
    1.2251    1.8005    4.6442 C   0  0
    2.8311   -0.6454   -1.3291 C   0  0
    0.6535   -1.9606    2.9992 C   0  0
   -0.8409    0.3875    0.2921 C   0  0
    0.9664   -1.8507    4.4750 C   0  0
   -0.5994    0.6341   -1.1807 C   0  0
    0.6253    0.4682    4.2666 C   0  0  2  0  0  0
    1.3671   -0.6399   -0.9631 C   0  0  2  0  0  0
   -0.1112   -0.7855    2.4051 C   0  0  2  0  0  0
   -0.0940   -0.7990    0.8861 C   0  0  2  0  0  0
    0.9214   -2.9769    2.3620 O   0  0
   -1.6594    1.0499    0.9262 O   0  0
    1.4855   -0.5630    4.7600 O   0  0
    0.7899    0.5732   -1.4549 O   0  0
    0.4989    0.4239    2.8418 O   0  0
    1.2630   -0.7438    0.4604 O   0  0
    2.7657    5.2227    5.6124 H   0  0
    6.5916   -0.6595   -2.2675 H   0  0
    1.1769    4.0979    7.1504 H   0  0
    3.3680    4.1566    3.4541 H   0  0
    4.9210   -1.6302   -3.8239 H   0  0
    5.8546    0.3200   -0.1100 H   0  0
    0.1915    1.9143    6.5376 H   0  0
    2.3881    1.9734    2.8321 H   0  0
    2.5206   -1.6233   -3.2301 H   0  0
    3.4567    0.3316    0.4930 H   0  0
    0.0584   -2.0353    5.0580 H   0  0
    1.7226   -2.5932    4.7449 H   0  0
   -1.1395   -0.1123   -1.7718 H   0  0
   -0.9588    1.6317   -1.4483 H   0  0
   -0.3701    0.3959    4.7411 H   0  0
    0.8919   -1.5131   -1.4459 H   0  0
   -1.1458   -0.8237    2.7635 H   0  0
   -0.5553   -1.7225    0.5192 H   0  0
  1  3  2  0
  1  4  1  0
  2  5  2  0
  2  6  1  0
  3  7  1  0
  4  8  2  0
  5  9  1  0
  6 10  2  0
  7 11  2  0
  8 11  1  0
  9 12  2  0
 10 12  1  0
 11 17  1  0
 12 18  1  0
 13 15  1  0
 13 19  1  0
 13 21  2  0
 14 16  1  0
 14 20  1  0
 14 22  2  0
 15 23  1  0
 16 24  1  0
 17 23  1  0
 17 25  1  0
 18 24  1  0
 18 26  1  0
 19 20  1  0
 19 25  1  0
 20 26  1  0
  1 27  1  0
  2 28  1  0
  3 29  1  0
  4 30  1  0
  5 31  1  0
  6 32  1  0
  7 33  1  0
  8 34  1  0
  9 35  1  0
 10 36  1  0
 15 37  1  0
 15 38  1  0
 16 39  1  0
 16 40  1  0
 17 41  1  0
 18 42  1  0
 19 43  1  0
 20 44  1  0
M  END
> <Name>
BR010303

$$$$
BR010304
  SciTegic05062102053D

 46 49  0  0  1  0            999 V2000
   -0.9125    5.1856   -5.1035 C   0  0
    0.6327   -4.0304   -3.9092 C   0  0
   -0.1696    6.0732   -4.3251 C   0  0
   -0.8849    3.8196   -4.8221 C   0  0
    0.5957   -4.5616   -2.6200 C   0  0
    0.5465   -2.6510   -4.0979 C   0  0
    0.6011    5.5948   -3.2655 C   0  0
   -0.1141    3.3413   -3.7625 C   0  0
    0.4725   -3.7135   -1.5195 C   0  0
    0.4233   -1.8029   -2.9974 C   0  0
    0.6289    4.2289   -2.9842 C   0  0
    0.3863   -2.3341   -1.7082 C   0  0
    2.9653    1.8049   -0.5668 C   0  0
    3.6244    2.9473   -1.3074 C   0  0
   -1.3371   -0.3677    0.8633 C   0  0
    1.4627    3.7106   -1.8381 C   0  0  2  0  0  0
    0.2527   -1.4160   -0.5181 C   0  0  2  0  0  0
    1.5114    2.0330   -0.1759 C   0  0  2  0  0  0
    0.8214    0.7434    0.2517 C   0  0  1  0  0  0
   -0.6515    0.9707    0.6073 C   0  0  2  0  0  0
    3.6018    0.8092   -0.2288 O   0  0
    2.7678    3.4068   -2.3390 O   0  0
   -1.1414   -1.2407   -0.2451 O   0  0
    0.8127    2.5544   -1.3009 O   0  0
    0.9141   -0.1859   -0.8314 O   0  0
   -0.7559    1.7973    1.7562 O   0  0
   -1.5137    5.5584   -5.9276 H   0  0
    0.7300   -4.6908   -4.7659 H   0  0
   -0.1919    7.1369   -4.5433 H   0  0
   -1.4640    3.1284   -5.4272 H   0  0
    0.6639   -5.6355   -2.4729 H   0  0
    0.5763   -2.2370   -5.1014 H   0  0
    1.1770    6.2937   -2.6645 H   0  0
   -0.0985    2.2754   -3.5508 H   0  0
    0.4444   -4.1363   -0.5187 H   0  0
    0.3566   -0.7295   -3.1540 H   0  0
    3.8497    3.7580   -0.6071 H   0  0
    4.5552    2.5989   -1.7636 H   0  0
   -0.9627   -0.8428    1.7788 H   0  0
   -2.4135   -0.2231    1.0062 H   0  0
    1.5219    4.5059   -1.0730 H   0  0
    0.7473   -1.9007    0.3424 H   0  0
    1.4799    2.7609    0.6430 H   0  0
    1.3651    0.3438    1.1161 H   0  0
   -1.1548    1.4640   -0.2348 H   0  0
   -1.7036    1.9273    1.9252 H   0  0
  1  3  2  0
  1  4  1  0
  2  5  2  0
  2  6  1  0
  3  7  1  0
  4  8  2  0
  5  9  1  0
  6 10  2  0
  7 11  2  0
  8 11  1  0
  9 12  2  0
 10 12  1  0
 11 16  1  0
 12 17  1  0
 13 14  1  0
 13 18  1  0
 13 21  2  0
 14 22  1  0
 15 20  1  0
 15 23  1  0
 16 22  1  0
 16 24  1  0
 17 23  1  0
 17 25  1  0
 18 19  1  0
 18 24  1  0
 19 20  1  0
 19 25  1  0
 20 26  1  0
  1 27  1  0
  2 28  1  0
  3 29  1  0
  4 30  1  0
  5 31  1  0
  6 32  1  0
  7 33  1  0
  8 34  1  0
  9 35  1  0
 10 36  1  0
 14 37  1  0
 14 38  1  0
 15 39  1  0
 15 40  1  0
 16 41  1  0
 17 42  1  0
 18 43  1  0
 19 44  1  0
 20 45  1  0
 26 46  1  0
M  END
> <Name>
BR010304

$$$$
BR010305
  SciTegic05062102053D

 62 65  0  0  1  0            999 V2000
   -0.3679    4.7388   -5.5875 C   0  0
    1.3179   -4.2847   -3.5706 C   0  0
    0.1300    5.7310   -4.7430 C   0  0
   -0.2459    3.3953   -5.2329 C   0  0
    1.1424   -4.7354   -2.2623 C   0  0
    1.2055   -2.9249   -3.8608 C   0  0
    0.7500    5.3797   -3.5439 C   0  0
    0.3742    3.0439   -4.0339 C   0  0
    0.8544   -3.8265   -1.2442 C   0  0
    0.9175   -2.0160   -2.8427 C   0  0
    0.8721    4.0361   -3.1893 C   0  0
    0.7419   -2.4667   -1.5344 C   0  0
    3.6324    3.1066   -0.9608 C   0  0
   -1.3541   -0.4216    0.6733 C   0  0
    1.5430    3.6553   -1.8924 C   0  0  2  0  0  0
    0.4302   -1.4829   -0.4335 C   0  0  2  0  0  0
    1.5114    2.0330   -0.1759 C   0  0  1  0  0  0
    0.8214    0.7434    0.2517 C   0  0  1  0  0  0
    3.0185    1.8399   -0.3733 C   0  0  2  0  0  0
   -0.6913    0.9271    0.4118 C   0  0  2  0  0  0
    4.0768   -1.1843    2.3175 C   0  0
   -1.1734    4.9190    1.5688 C   0  0
    4.8925    0.8775    0.6783 C   0  0
   -2.2646    2.3947    1.3686 C   0  0
    2.9409    3.4838   -2.1476 O   0  0
   -0.9923   -1.3527   -0.3423 O   0  0
    0.9192    2.4629   -1.4047 O   0  0
    1.0799   -0.2468   -0.7473 O   0  0
    3.6385    1.5290    0.8649 O   0  0
   -0.9657    1.8184    1.4816 O   0  0
    5.4340    0.0042    2.1771 S   0  0
   -2.4308    3.8981    2.3755 S   0  0
   -0.8518    5.0126   -6.5205 H   0  0
    1.5434   -4.9924   -4.3629 H   0  0
    0.0341    6.7772   -5.0184 H   0  0
   -0.6344    2.6226   -5.8897 H   0  0
    1.2309   -5.7940   -2.0359 H   0  0
    1.3432   -2.5735   -4.8790 H   0  0
    1.1352    6.1595   -2.8922 H   0  0
    0.4649    1.9946   -3.7659 H   0  0
    0.7190   -4.1868   -0.2278 H   0  0
    0.8317   -0.9585   -3.0781 H   0  0
    3.6112    3.9350   -0.2415 H   0  0
    4.6857    2.9390   -1.2106 H   0  0
   -1.0778   -0.8216    1.6570 H   0  0
   -2.4444   -0.3161    0.6758 H   0  0
    1.3892    4.4809   -1.1749 H   0  0
    0.8327   -1.8906    0.5108 H   0  0
    1.3225    2.7881    0.5970 H   0  0
    1.2681    0.4214    1.2004 H   0  0
    3.1881    1.0130   -1.0755 H   0  0
   -1.1050    1.3442   -0.5159 H   0  0
    4.2298   -1.8217    3.1918 H   0  0
    4.0377   -1.8102    1.4225 H   0  0
    3.1279   -0.6531    2.4240 H   0  0
   -1.1231    5.8978    2.0520 H   0  0
   -1.4262    5.0547    0.5143 H   0  0
   -0.1974    4.4333    1.6428 H   0  0
    4.8271    0.1602   -0.1468 H   0  0
    5.6552    1.6242    0.4338 H   0  0
   -2.4793    2.6415    0.3233 H   0  0
   -3.0114    1.6746    1.7190 H   0  0
  1  3  2  0
  1  4  1  0
  2  5  2  0
  2  6  1  0
  3  7  1  0
  4  8  2  0
  5  9  1  0
  6 10  2  0
  7 11  2  0
  8 11  1  0
  9 12  2  0
 10 12  1  0
 11 15  1  0
 12 16  1  0
 13 19  1  0
 13 25  1  0
 14 20  1  0
 14 26  1  0
 15 25  1  0
 15 27  1  0
 16 26  1  0
 16 28  1  0
 17 18  1  0
 17 19  1  0
 17 27  1  0
 18 20  1  0
 18 28  1  0
 19 29  1  0
 20 30  1  0
 21 31  1  0
 22 32  1  0
 23 29  1  0
 23 31  1  0
 24 30  1  0
 24 32  1  0
  1 33  1  0
  2 34  1  0
  3 35  1  0
  4 36  1  0
  5 37  1  0
  6 38  1  0
  7 39  1  0
  8 40  1  0
  9 41  1  0
 10 42  1  0
 13 43  1  0
 13 44  1  0
 14 45  1  0
 14 46  1  0
 15 47  1  0
 16 48  1  0
 17 49  1  0
 18 50  1  0
 19 51  1  0
 20 52  1  0
 21 53  1  0
 21 54  1  0
 21 55  1  0
 22 56  1  0
 22 57  1  0
 22 58  1  0
 23 59  1  0
 23 60  1  0
 24 61  1  0
 24 62  1  0
M  END
> <Name>
BR010305

$$$$
BR010306
  SciTegic05062102053D

 60 63  0  0  1  0            999 V2000
   -0.3679    4.7388   -5.5875 C   0  0
    1.3179   -4.2847   -3.5706 C   0  0
    0.1300    5.7310   -4.7430 C   0  0
   -0.2459    3.3953   -5.2329 C   0  0
    1.1424   -4.7354   -2.2623 C   0  0
    1.2055   -2.9249   -3.8608 C   0  0
    0.7500    5.3797   -3.5439 C   0  0
    0.3742    3.0439   -4.0339 C   0  0
    0.8544   -3.8265   -1.2442 C   0  0
    0.9175   -2.0160   -2.8427 C   0  0
    0.8721    4.0361   -3.1893 C   0  0
    0.7419   -2.4667   -1.5344 C   0  0
    3.6324    3.1066   -0.9608 C   0  0
   -1.3541   -0.4216    0.6733 C   0  0
    1.5430    3.6553   -1.8924 C   0  0  2  0  0  0
    0.4302   -1.4829   -0.4335 C   0  0  2  0  0  0
    1.5114    2.0330   -0.1759 C   0  0  1  0  0  0
    0.8214    0.7434    0.2517 C   0  0  1  0  0  0
    3.0185    1.8399   -0.3733 C   0  0  2  0  0  0
   -0.6913    0.9271    0.4118 C   0  0  2  0  0  0
    5.0156    0.1502    2.5089 C   0  0
   -1.9281    3.8938    2.6072 C   0  0
    6.1438    1.7683    0.7885 O   0  0
    5.0382   -0.3485   -0.0605 O   0  0
   -3.3719    1.7455    2.2192 O   0  0
   -2.6931    3.1456    0.2185 O   0  0
    2.9409    3.4838   -2.1476 O   0  0
   -0.9923   -1.3527   -0.3423 O   0  0
    0.9192    2.4629   -1.4047 O   0  0
    1.0799   -0.2468   -0.7473 O   0  0
    3.6385    1.5290    0.8649 O   0  0
   -0.9657    1.8184    1.4816 O   0  0
    5.0889    0.7771    0.8502 S   0  0
   -2.4124    2.5766    1.5210 S   0  0
   -0.8518    5.0126   -6.5205 H   0  0
    1.5434   -4.9924   -4.3629 H   0  0
    0.0341    6.7772   -5.0184 H   0  0
   -0.6344    2.6226   -5.8897 H   0  0
    1.2309   -5.7940   -2.0359 H   0  0
    1.3432   -2.5735   -4.8790 H   0  0
    1.1352    6.1595   -2.8922 H   0  0
    0.4649    1.9946   -3.7659 H   0  0
    0.7190   -4.1868   -0.2278 H   0  0
    0.8317   -0.9585   -3.0781 H   0  0
    3.6112    3.9350   -0.2415 H   0  0
    4.6857    2.9390   -1.2106 H   0  0
   -1.0778   -0.8216    1.6570 H   0  0
   -2.4444   -0.3161    0.6758 H   0  0
    1.3892    4.4809   -1.1749 H   0  0
    0.8327   -1.8906    0.5108 H   0  0
    1.3225    2.7881    0.5970 H   0  0
    1.2681    0.4214    1.2004 H   0  0
    3.1881    1.0130   -1.0755 H   0  0
   -1.1050    1.3442   -0.5159 H   0  0
    4.2221   -0.5969    2.5599 H   0  0
    5.9801   -0.2992    2.7500 H   0  0
    4.8019    0.9817    3.1821 H   0  0
   -1.2051    4.5225    2.0851 H   0  0
   -2.8173    4.4696    2.8681 H   0  0
   -1.4797    3.4563    3.5004 H   0  0
  1  3  2  0
  1  4  1  0
  2  5  2  0
  2  6  1  0
  3  7  1  0
  4  8  2  0
  5  9  1  0
  6 10  2  0
  7 11  2  0
  8 11  1  0
  9 12  2  0
 10 12  1  0
 11 15  1  0
 12 16  1  0
 13 19  1  0
 13 27  1  0
 14 20  1  0
 14 28  1  0
 15 27  1  0
 15 29  1  0
 16 28  1  0
 16 30  1  0
 17 18  1  0
 17 19  1  0
 17 29  1  0
 18 20  1  0
 18 30  1  0
 19 31  1  0
 20 32  1  0
 21 33  1  0
 22 34  1  0
 23 33  2  0
 24 33  2  0
 25 34  2  0
 26 34  2  0
 31 33  1  0
 32 34  1  0
  1 35  1  0
  2 36  1  0
  3 37  1  0
  4 38  1  0
  5 39  1  0
  6 40  1  0
  7 41  1  0
  8 42  1  0
  9 43  1  0
 10 44  1  0
 13 45  1  0
 13 46  1  0
 14 47  1  0
 14 48  1  0
 15 49  1  0
 16 50  1  0
 17 51  1  0
 18 52  1  0
 19 53  1  0
 20 54  1  0
 21 55  1  0
 21 56  1  0
 21 57  1  0
 22 58  1  0
 22 59  1  0
 22 60  1  0
M  END
> <Name>
BR010306

$$$$
BR010307
  SciTegic05062102053D

 80 85  0  0  1  0            999 V2000
   -0.3679    4.7388   -5.5875 C   0  0
    1.3179   -4.2847   -3.5706 C   0  0
    0.1300    5.7310   -4.7430 C   0  0
   -0.2459    3.3953   -5.2329 C   0  0
    1.1424   -4.7354   -2.2623 C   0  0
    1.2055   -2.9249   -3.8608 C   0  0
    0.7500    5.3797   -3.5439 C   0  0
    0.3742    3.0439   -4.0339 C   0  0
    0.8544   -3.8265   -1.2442 C   0  0
    0.9175   -2.0160   -2.8427 C   0  0
    4.8474   -1.7904    3.9671 C   0  0
    5.9013    0.2277    4.7756 C   0  0
   -1.4991    6.2722    2.8898 C   0  0
   -2.1464    4.9370    4.7964 C   0  0
    4.7438   -1.2267    2.6954 C   0  0
    5.7977    0.7913    3.5039 C   0  0
   -1.7115    5.1779    2.0513 C   0  0
   -2.3588    3.8427    3.9580 C   0  0
    0.8721    4.0361   -3.1893 C   0  0
    0.7419   -2.4667   -1.5344 C   0  0
    5.4261   -1.0631    5.0072 C   0  0
   -1.7166    6.1518    4.2623 C   0  0
    5.2189    0.0641    2.4638 C   0  0
   -2.1414    3.9632    2.5854 C   0  0
    3.6324    3.1066   -0.9608 C   0  0
   -1.3541   -0.4216    0.6733 C   0  0
    1.5430    3.6553   -1.8924 C   0  0  2  0  0  0
    0.4302   -1.4829   -0.4335 C   0  0  2  0  0  0
    1.5114    2.0330   -0.1759 C   0  0  1  0  0  0
    0.8214    0.7434    0.2517 C   0  0  1  0  0  0
    3.0185    1.8399   -0.3733 C   0  0  2  0  0  0
   -0.6913    0.9271    0.4118 C   0  0  2  0  0  0
    5.5364   -1.6652    6.3672 C   0  0
   -1.4889    7.3214    5.1592 C   0  0
    6.1394    1.7739    0.7744 O   0  0
    5.0152   -0.3216   -0.0910 O   0  0
   -3.3712    1.7337    2.2087 O   0  0
   -2.6776    3.1061    0.1990 O   0  0
    2.9409    3.4838   -2.1476 O   0  0
   -0.9923   -1.3527   -0.3423 O   0  0
    0.9192    2.4629   -1.4047 O   0  0
    1.0799   -0.2468   -0.7473 O   0  0
    3.6385    1.5290    0.8649 O   0  0
   -0.9657    1.8184    1.4816 O   0  0
    5.0899    0.7767    0.8541 S   0  0
   -2.4123    2.5789    1.5243 S   0  0
   -0.8518    5.0126   -6.5205 H   0  0
    1.5434   -4.9924   -4.3629 H   0  0
    0.0341    6.7772   -5.0184 H   0  0
   -0.6344    2.6226   -5.8897 H   0  0
    1.2309   -5.7940   -2.0359 H   0  0
    1.3432   -2.5735   -4.8790 H   0  0
    1.1352    6.1595   -2.8922 H   0  0
    0.4649    1.9946   -3.7659 H   0  0
    0.7190   -4.1868   -0.2278 H   0  0
    0.8317   -0.9585   -3.0781 H   0  0
    4.4741   -2.7965    4.1382 H   0  0
    6.3533    0.8019    5.5801 H   0  0
   -1.1639    7.2145    2.4647 H   0  0
   -2.3180    4.8338    5.8646 H   0  0
    4.2906   -1.8018    1.8921 H   0  0
    6.1708    1.7979    3.3347 H   0  0
   -1.5386    5.2823    0.9834 H   0  0
   -2.6934    2.9008    4.3847 H   0  0
    3.6112    3.9350   -0.2415 H   0  0
    4.6857    2.9390   -1.2106 H   0  0
   -1.0778   -0.8216    1.6570 H   0  0
   -2.4444   -0.3161    0.6758 H   0  0
    1.3892    4.4809   -1.1749 H   0  0
    0.8327   -1.8906    0.5108 H   0  0
    1.3225    2.7881    0.5970 H   0  0
    1.2681    0.4214    1.2004 H   0  0
    3.1881    1.0130   -1.0755 H   0  0
   -1.1050    1.3442   -0.5159 H   0  0
    6.4866   -2.2032    6.4709 H   0  0
    5.4850   -0.8961    7.1488 H   0  0
    4.7156   -2.3685    6.5593 H   0  0
   -2.4086    7.9107    5.2594 H   0  0
   -1.1706    7.0005    6.1595 H   0  0
   -0.6977    7.9748    4.7687 H   0  0
  1  3  2  0
  1  4  1  0
  2  5  2  0
  2  6  1  0
  3  7  1  0
  4  8  2  0
  5  9  1  0
  6 10  2  0
  7 19  2  0
  8 19  1  0
  9 20  2  0
 10 20  1  0
 11 15  1  0
 11 21  2  0
 12 16  2  0
 12 21  1  0
 13 17  1  0
 13 22  2  0
 14 18  2  0
 14 22  1  0
 15 23  2  0
 16 23  1  0
 17 24  2  0
 18 24  1  0
 19 27  1  0
 20 28  1  0
 21 33  1  0
 22 34  1  0
 23 45  1  0
 24 46  1  0
 25 31  1  0
 25 39  1  0
 26 32  1  0
 26 40  1  0
 27 39  1  0
 27 41  1  0
 28 40  1  0
 28 42  1  0
 29 30  1  0
 29 31  1  0
 29 41  1  0
 30 32  1  0
 30 42  1  0
 31 43  1  0
 32 44  1  0
 35 45  2  0
 36 45  2  0
 37 46  2  0
 38 46  2  0
 43 45  1  0
 44 46  1  0
  1 47  1  0
  2 48  1  0
  3 49  1  0
  4 50  1  0
  5 51  1  0
  6 52  1  0
  7 53  1  0
  8 54  1  0
  9 55  1  0
 10 56  1  0
 11 57  1  0
 12 58  1  0
 13 59  1  0
 14 60  1  0
 15 61  1  0
 16 62  1  0
 17 63  1  0
 18 64  1  0
 25 65  1  0
 25 66  1  0
 26 67  1  0
 26 68  1  0
 27 69  1  0
 28 70  1  0
 29 71  1  0
 30 72  1  0
 31 73  1  0
 32 74  1  0
 33 75  1  0
 33 76  1  0
 33 77  1  0
 34 78  1  0
 34 79  1  0
 34 80  1  0
M  END
> <Name>
BR010307

$$$$
BR010308
  SciTegic05062102053D

 60 63  0  0  1  0            999 V2000
   -0.3679    4.7388   -5.5875 C   0  0
    1.3179   -4.2847   -3.5706 C   0  0
    0.1300    5.7310   -4.7430 C   0  0
   -0.2459    3.3953   -5.2329 C   0  0
    1.1424   -4.7354   -2.2623 C   0  0
    1.2055   -2.9249   -3.8608 C   0  0
    0.7500    5.3797   -3.5439 C   0  0
    0.3742    3.0439   -4.0339 C   0  0
    0.8544   -3.8265   -1.2442 C   0  0
    0.9175   -2.0160   -2.8427 C   0  0
    0.8721    4.0361   -3.1893 C   0  0
    0.7419   -2.4667   -1.5344 C   0  0
    3.6324    3.1066   -0.9608 C   0  0
   -1.3541   -0.4216    0.6733 C   0  0
    1.5430    3.6553   -1.8924 C   0  0  2  0  0  0
    0.4302   -1.4829   -0.4335 C   0  0  2  0  0  0
    1.5114    2.0330   -0.1759 C   0  0  1  0  0  0
    0.8214    0.7434    0.2517 C   0  0  1  0  0  0
    3.0185    1.8399   -0.3733 C   0  0  2  0  0  0
   -0.6913    0.9271    0.4118 C   0  0  2  0  0  0
    5.0139    0.1553    2.4989 C   0  0
   -1.9288    3.8845    2.6007 C   0  0
    6.1432    1.7686    0.7908 O   0  0
    5.0373   -0.3493   -0.0585 O   0  0
   -3.3708    1.7462    2.2211 O   0  0
   -2.6917    3.1472    0.2195 O   0  0
    2.9409    3.4838   -2.1476 O   0  0
   -0.9923   -1.3527   -0.3423 O   0  0
    0.9192    2.4629   -1.4047 O   0  0
    1.0799   -0.2468   -0.7473 O   0  0
    3.6385    1.5290    0.8649 O   0  0
   -0.9657    1.8184    1.4816 O   0  0
    4.0439   -0.7816    2.6287 F   0  0
    4.7462    1.1371    3.3932 F   0  0
    6.1821   -0.4214    2.8702 F   0  0
   -1.0280    4.7052    2.0083 F   0  0
   -1.3573    3.4130    3.7348 F   0  0
   -2.9863    4.6472    2.9685 F   0  0
    5.0887    0.7773    0.8507 S   0  0
   -2.4120    2.5767    1.5214 S   0  0
   -0.8518    5.0126   -6.5205 H   0  0
    1.5434   -4.9924   -4.3629 H   0  0
    0.0341    6.7772   -5.0184 H   0  0
   -0.6344    2.6226   -5.8897 H   0  0
    1.2309   -5.7940   -2.0359 H   0  0
    1.3432   -2.5735   -4.8790 H   0  0
    1.1352    6.1595   -2.8922 H   0  0
    0.4649    1.9946   -3.7659 H   0  0
    0.7190   -4.1868   -0.2278 H   0  0
    0.8317   -0.9585   -3.0781 H   0  0
    3.6112    3.9350   -0.2415 H   0  0
    4.6857    2.9390   -1.2106 H   0  0
   -1.0778   -0.8216    1.6570 H   0  0
   -2.4444   -0.3161    0.6758 H   0  0
    1.3892    4.4809   -1.1749 H   0  0
    0.8327   -1.8906    0.5108 H   0  0
    1.3225    2.7881    0.5970 H   0  0
    1.2681    0.4214    1.2004 H   0  0
    3.1881    1.0130   -1.0755 H   0  0
   -1.1050    1.3442   -0.5159 H   0  0
  1  3  2  0
  1  4  1  0
  2  5  2  0
  2  6  1  0
  3  7  1  0
  4  8  2  0
  5  9  1  0
  6 10  2  0
  7 11  2  0
  8 11  1  0
  9 12  2  0
 10 12  1  0
 11 15  1  0
 12 16  1  0
 13 19  1  0
 13 27  1  0
 14 20  1  0
 14 28  1  0
 15 27  1  0
 15 29  1  0
 16 28  1  0
 16 30  1  0
 17 18  1  0
 17 19  1  0
 17 29  1  0
 18 20  1  0
 18 30  1  0
 19 31  1  0
 20 32  1  0
 21 33  1  0
 21 34  1  0
 21 35  1  0
 21 39  1  0
 22 36  1  0
 22 37  1  0
 22 38  1  0
 22 40  1  0
 23 39  2  0
 24 39  2  0
 25 40  2  0
 26 40  2  0
 31 39  1  0
 32 40  1  0
  1 41  1  0
  2 42  1  0
  3 43  1  0
  4 44  1  0
  5 45  1  0
  6 46  1  0
  7 47  1  0
  8 48  1  0
  9 49  1  0
 10 50  1  0
 13 51  1  0
 13 52  1  0
 14 53  1  0
 14 54  1  0
 15 55  1  0
 16 56  1  0
 17 57  1  0
 18 58  1  0
 19 59  1  0
 20 60  1  0
M  END
> <Name>
BR010308

$$$$
BR010309
  SciTegic05062102053D

 54 57  0  0  1  0            999 V2000
   -0.8824    5.1638   -5.1364 C   0  0
    0.6327   -4.0304   -3.9092 C   0  0
   -0.2434    6.0780   -4.2990 C   0  0
   -0.7783    3.7958   -4.8841 C   0  0
    0.5957   -4.5616   -2.6200 C   0  0
    0.5465   -2.6510   -4.0979 C   0  0
    0.4999    5.6244   -3.2093 C   0  0
   -0.0349    3.3422   -3.7945 C   0  0
    0.4725   -3.7135   -1.5195 C   0  0
    0.4233   -1.8029   -2.9974 C   0  0
    0.6042    4.2565   -2.9570 C   0  0
    0.3863   -2.3341   -1.7082 C   0  0
    3.5683    3.0794   -1.1465 C   0  0
   -1.3371   -0.3677    0.8633 C   0  0
    1.4084    3.7651   -1.7786 C   0  0  2  0  0  0
    0.2527   -1.4160   -0.5181 C   0  0  2  0  0  0
    1.5114    2.0330   -0.1759 C   0  0  1  0  0  0
    0.8214    0.7434    0.2517 C   0  0  1  0  0  0
    2.9739    1.7991   -0.5684 C   0  0  2  0  0  0
   -0.6515    0.9707    0.6073 C   0  0  2  0  0  0
   -1.4834    3.8256    3.1189 C   0  0
   -3.0570    1.7621    2.7775 O   0  0
   -2.5620    3.2683    0.8000 O   0  0
    2.7566    3.5606   -2.2136 O   0  0
   -1.1414   -1.2407   -0.2451 O   0  0
    0.7956    2.5660   -1.2935 O   0  0
    0.9141   -0.1859   -0.8314 O   0  0
    3.7237    1.3832    0.5625 O   0  0
   -0.7559    1.7973    1.7562 O   0  0
   -2.1524    2.6030    2.0202 S   0  0
   -1.4623    5.5172   -5.9840 H   0  0
    0.7300   -4.6908   -4.7659 H   0  0
   -0.3253    7.1432   -4.4946 H   0  0
   -1.2766    3.0838   -5.5352 H   0  0
    0.6639   -5.6355   -2.4728 H   0  0
    0.5763   -2.2370   -5.1014 H   0  0
    0.9946    6.3441   -2.5623 H   0  0
    0.0408    2.2746   -3.6057 H   0  0
    0.4444   -4.1363   -0.5187 H   0  0
    0.3566   -0.7295   -3.1540 H   0  0
    3.6701    3.8576   -0.3796 H   0  0
    4.5755    2.8909   -1.5335 H   0  0
   -0.9627   -0.8428    1.7788 H   0  0
   -2.4135   -0.2231    1.0062 H   0  0
    1.3785    4.5455   -0.9975 H   0  0
    0.7473   -1.9007    0.3424 H   0  0
    1.4503    2.7407    0.6600 H   0  0
    1.3641    0.3422    1.1164 H   0  0
    3.0212    1.0157   -1.3364 H   0  0
   -1.1548    1.4640   -0.2348 H   0  0
   -0.8013    4.4614    2.5523 H   0  0
   -2.3086    4.4143    3.5224 H   0  0
   -0.9509    3.3129    3.9213 H   0  0
    4.6328    1.2285    0.2570 H   0  0
  1  3  2  0
  1  4  1  0
  2  5  2  0
  2  6  1  0
  3  7  1  0
  4  8  2  0
  5  9  1  0
  6 10  2  0
  7 11  2  0
  8 11  1  0
  9 12  2  0
 10 12  1  0
 11 15  1  0
 12 16  1  0
 13 19  1  0
 13 24  1  0
 14 20  1  0
 14 25  1  0
 15 24  1  0
 15 26  1  0
 16 25  1  0
 16 27  1  0
 17 18  1  0
 17 19  1  0
 17 26  1  0
 18 20  1  0
 18 27  1  0
 19 28  1  0
 20 29  1  0
 21 30  1  0
 22 30  2  0
 23 30  2  0
 29 30  1  0
  1 31  1  0
  2 32  1  0
  3 33  1  0
  4 34  1  0
  5 35  1  0
  6 36  1  0
  7 37  1  0
  8 38  1  0
  9 39  1  0
 10 40  1  0
 13 41  1  0
 13 42  1  0
 14 43  1  0
 14 44  1  0
 15 45  1  0
 16 46  1  0
 17 47  1  0
 18 48  1  0
 19 49  1  0
 20 50  1  0
 21 51  1  0
 21 52  1  0
 21 53  1  0
 28 54  1  0
M  END
> <Name>
BR010309

$$$$
BR010310
  SciTegic05062102053D

 49 52  0  0  1  0            999 V2000
    6.7830    1.5594   -3.5964 C   0  0
    4.4538   -3.9844    2.3945 C   0  0
    6.1525    2.7569   -3.9342 C   0  0
    6.2951    0.7875   -2.5419 C   0  0
    3.1909   -4.0942    2.9764 C   0  0
    4.6798   -3.0423    1.3910 C   0  0
    5.0342    3.1826   -3.2174 C   0  0
    5.1768    1.2133   -1.8252 C   0  0
    2.1539   -3.2620    2.5547 C   0  0
    3.6429   -2.2101    0.9693 C   0  0
    4.5463    2.4108   -2.1629 C   0  0
    2.3799   -2.3199    1.5511 C   0  0
    2.7480    4.1100    0.5146 C   0  0
   -0.4916   -1.2622   -0.4701 C   0  0
    3.3531    2.8646   -1.3975 C   0  0  2  0  0  0
    1.2585   -1.4195    1.0943 C   0  0  2  0  0  0
    1.9186    2.9247    1.0040 C   0  0  1  0  0  0
    1.5114    2.0330   -0.1759 C   0  0  2  0  0  0
    0.8214    0.7434    0.2517 C   0  0  1  0  0  0
    0.0368    0.1031   -0.8981 C   0  0  2  0  0  0
    1.8665    1.9999    4.1716 N   0  5
    2.7348    2.1594    1.9597 N   0  0
    2.2766    2.0803    3.1103 N   0  3
    3.8255    3.6665   -0.3115 O   0  0
    0.5741   -2.0710    0.0191 O   0  0
    2.6604    1.6923   -0.9578 O   0  0
    1.8279   -0.1644    0.7079 O   0  0
   -1.0413    0.9424   -1.2821 O   0  0
    7.6530    1.2274   -4.1555 H   0  0
    5.2614   -4.6315    2.7240 H   0  0
    6.5316    3.3575   -4.7559 H   0  0
    6.7850   -0.1454   -2.2794 H   0  0
    3.0150   -4.8270    3.7586 H   0  0
    5.6632   -2.9558    0.9385 H   0  0
    4.5495    4.1171   -3.4875 H   0  0
    4.8037    0.6055   -1.0051 H   0  0
    1.1731   -3.3548    3.0136 H   0  0
    3.8282   -1.4791    0.1867 H   0  0
    2.1282    4.8073   -0.0613 H   0  0
    3.1781    4.6633    1.3560 H   0  0
   -1.2686   -1.1698    0.2991 H   0  0
   -0.9551   -1.7748   -1.3200 H   0  0
    2.7151    3.4596   -2.0620 H   0  0
    0.5706   -1.2743    1.9461 H   0  0
    1.0297    3.2848    1.5329 H   0  0
    0.8184    2.5882   -0.8220 H   0  0
    0.1487    0.9815    1.0850 H   0  0
    0.7052   -0.0363   -1.7580 H   0  0
   -1.4902    0.5036   -2.0236 H   0  0
  1  3  2  0
  1  4  1  0
  2  5  2  0
  2  6  1  0
  3  7  1  0
  4  8  2  0
  5  9  1  0
  6 10  2  0
  7 11  2  0
  8 11  1  0
  9 12  2  0
 10 12  1  0
 11 15  1  0
 12 16  1  0
 13 17  1  0
 13 24  1  0
 14 20  1  0
 14 25  1  0
 15 24  1  0
 15 26  1  0
 16 25  1  0
 16 27  1  0
 17 18  1  0
 17 22  1  0
 18 19  1  0
 18 26  1  0
 19 20  1  0
 19 27  1  0
 20 28  1  0
 21 23  2  0
 22 23  2  0
  1 29  1  0
  2 30  1  0
  3 31  1  0
  4 32  1  0
  5 33  1  0
  6 34  1  0
  7 35  1  0
  8 36  1  0
  9 37  1  0
 10 38  1  0
 13 39  1  0
 13 40  1  0
 14 41  1  0
 14 42  1  0
 15 43  1  0
 16 44  1  0
 17 45  1  0
 18 46  1  0
 19 47  1  0
 20 48  1  0
 28 49  1  0
M  CHG  2  21  -1  23   1
M  END
> <Name>
BR010310

$$$$
BR010311
  SciTegic05062102053D

 47 50  0  0  1  0            999 V2000
   -3.9834   -4.8232   -2.0757 C   0  0
   -0.2938   -6.3279    5.3988 C   0  0
   -3.6610   -3.7857   -2.9505 C   0  0
   -3.3349   -4.9246   -0.8449 C   0  0
    0.3625   -5.4119    6.2209 C   0  0
   -0.8983   -5.8969    4.2179 C   0  0
   -2.6900   -2.8497   -2.5946 C   0  0
   -2.3639   -3.9886   -0.4890 C   0  0
    0.4141   -4.0649    5.8622 C   0  0
   -0.8467   -4.5500    3.8592 C   0  0
   -2.0414   -2.9511   -1.3638 C   0  0
   -0.1905   -3.6339    4.6813 C   0  0
    1.2812   -1.1427    0.3298 C   0  0
    1.3153   -1.4988   -1.1400 C   0  0
   -1.3458   -0.1805    4.5097 C   0  0
   -0.9906   -1.9390   -0.9782 C   0  0  2  0  0  0
   -0.1360   -2.1968    4.2981 C   0  0  2  0  0  0
   -0.0940   -0.7990    0.8861 C   0  0  2  0  0  0
   -1.2984   -0.0119    2.9926 C   0  0  1  0  0  0
   -0.1112   -0.7855    2.4051 C   0  0  1  0  0  0
   -3.8926    1.0621    1.2582 N   0  5
   -2.5614   -0.5226    2.4364 N   0  0
   -3.2501    0.3083    1.8239 N   0  3
    2.3137   -1.0493    0.9899 O   0  0
    0.2778   -2.4186   -1.4341 O   0  0
   -1.2845   -1.5620    4.8671 O   0  0
   -1.0239   -1.7813    0.4437 O   0  0
   -0.1251   -2.1393    2.8683 O   0  0
   -4.7405   -5.5511   -2.3525 H   0  0
   -0.3327   -7.3769    5.6776 H   0  0
   -4.1667   -3.7059   -3.9084 H   0  0
   -3.5864   -5.7316   -0.1632 H   0  0
    0.8342   -5.7474    7.1399 H   0  0
   -1.4084   -6.6100    3.5770 H   0  0
   -2.4451   -2.0448   -3.2826 H   0  0
   -1.8637   -4.0757    0.4719 H   0  0
    0.9274   -3.3582    6.5090 H   0  0
   -1.3207   -4.2233    2.9373 H   0  0
    1.2038   -0.5907   -1.7410 H   0  0
    2.2717   -1.9719   -1.3796 H   0  0
   -0.5081    0.3427    4.9857 H   0  0
   -2.2731    0.2304    4.9224 H   0  0
   -1.2395   -0.9835   -1.4748 H   0  0
    0.7832   -1.7592    4.7057 H   0  0
   -0.3905    0.1839    0.5024 H   0  0
   -1.2235    1.0506    2.7378 H   0  0
    0.8234   -0.3226    2.7490 H   0  0
  1  3  2  0
  1  4  1  0
  2  5  2  0
  2  6  1  0
  3  7  1  0
  4  8  2  0
  5  9  1  0
  6 10  2  0
  7 11  2  0
  8 11  1  0
  9 12  2  0
 10 12  1  0
 11 16  1  0
 12 17  1  0
 13 14  1  0
 13 18  1  0
 13 24  2  0
 14 25  1  0
 15 19  1  0
 15 26  1  0
 16 25  1  0
 16 27  1  0
 17 26  1  0
 17 28  1  0
 18 20  1  0
 18 27  1  0
 19 20  1  0
 19 22  1  0
 20 28  1  0
 21 23  2  0
 22 23  2  0
  1 29  1  0
  2 30  1  0
  3 31  1  0
  4 32  1  0
  5 33  1  0
  6 34  1  0
  7 35  1  0
  8 36  1  0
  9 37  1  0
 10 38  1  0
 14 39  1  0
 14 40  1  0
 15 41  1  0
 15 42  1  0
 16 43  1  0
 17 44  1  0
 18 45  1  0
 19 46  1  0
 20 47  1  0
M  CHG  2  21  -1  23   1
M  END
> <Name>
BR010311

$$$$
BR010312
  SciTegic05062102053D

 52 55  0  0  1  0            999 V2000
   -0.9125    5.1856   -5.1035 C   0  0
    0.6327   -4.0304   -3.9092 C   0  0
   -0.1696    6.0732   -4.3251 C   0  0
   -0.8849    3.8196   -4.8221 C   0  0
    0.5957   -4.5616   -2.6200 C   0  0
    0.5465   -2.6510   -4.0979 C   0  0
    0.6011    5.5948   -3.2655 C   0  0
   -0.1141    3.3413   -3.7625 C   0  0
    0.4725   -3.7135   -1.5195 C   0  0
    0.4233   -1.8029   -2.9974 C   0  0
    0.6289    4.2289   -2.9842 C   0  0
    0.3863   -2.3341   -1.7082 C   0  0
    2.9653    1.8049   -0.5668 C   0  0
    3.6244    2.9473   -1.3074 C   0  0
   -1.3371   -0.3677    0.8633 C   0  0
    1.4627    3.7106   -1.8381 C   0  0  2  0  0  0
    0.2527   -1.4160   -0.5181 C   0  0  2  0  0  0
    1.5114    2.0330   -0.1759 C   0  0  2  0  0  0
    0.8214    0.7434    0.2517 C   0  0  1  0  0  0
   -0.6515    0.9707    0.6073 C   0  0  2  0  0  0
   -1.4834    3.8256    3.1189 C   0  0
    3.6018    0.8092   -0.2288 O   0  0
   -3.0570    1.7621    2.7775 O   0  0
   -2.5620    3.2683    0.8000 O   0  0
    2.7678    3.4068   -2.3390 O   0  0
   -1.1414   -1.2407   -0.2451 O   0  0
    0.8127    2.5544   -1.3009 O   0  0
    0.9141   -0.1859   -0.8314 O   0  0
   -0.7559    1.7973    1.7562 O   0  0
   -2.1524    2.6030    2.0202 S   0  0
   -1.5137    5.5584   -5.9276 H   0  0
    0.7300   -4.6908   -4.7659 H   0  0
   -0.1919    7.1369   -4.5433 H   0  0
   -1.4640    3.1284   -5.4272 H   0  0
    0.6639   -5.6355   -2.4729 H   0  0
    0.5763   -2.2370   -5.1014 H   0  0
    1.1770    6.2937   -2.6645 H   0  0
   -0.0985    2.2754   -3.5508 H   0  0
    0.4444   -4.1363   -0.5187 H   0  0
    0.3566   -0.7295   -3.1540 H   0  0
    3.8497    3.7580   -0.6071 H   0  0
    4.5552    2.5989   -1.7636 H   0  0
   -0.9627   -0.8428    1.7788 H   0  0
   -2.4135   -0.2231    1.0062 H   0  0
    1.5219    4.5059   -1.0730 H   0  0
    0.7473   -1.9007    0.3424 H   0  0
    1.4799    2.7609    0.6430 H   0  0
    1.3651    0.3438    1.1161 H   0  0
   -1.1548    1.4640   -0.2348 H   0  0
   -0.8013    4.4614    2.5523 H   0  0
   -2.3086    4.4143    3.5224 H   0  0
   -0.9509    3.3129    3.9213 H   0  0
  1  3  2  0
  1  4  1  0
  2  5  2  0
  2  6  1  0
  3  7  1  0
  4  8  2  0
  5  9  1  0
  6 10  2  0
  7 11  2  0
  8 11  1  0
  9 12  2  0
 10 12  1  0
 11 16  1  0
 12 17  1  0
 13 14  1  0
 13 18  1  0
 13 22  2  0
 14 25  1  0
 15 20  1  0
 15 26  1  0
 16 25  1  0
 16 27  1  0
 17 26  1  0
 17 28  1  0
 18 19  1  0
 18 27  1  0
 19 20  1  0
 19 28  1  0
 20 29  1  0
 21 30  1  0
 23 30  2  0
 24 30  2  0
 29 30  1  0
  1 31  1  0
  2 32  1  0
  3 33  1  0
  4 34  1  0
  5 35  1  0
  6 36  1  0
  7 37  1  0
  8 38  1  0
  9 39  1  0
 10 40  1  0
 14 41  1  0
 14 42  1  0
 15 43  1  0
 15 44  1  0
 16 45  1  0
 17 46  1  0
 18 47  1  0
 19 48  1  0
 20 49  1  0
 21 50  1  0
 21 51  1  0
 21 52  1  0
M  END
> <Name>
BR010312

$$$$
BR010313
  SciTegic05062102053D

 23 23  0  0  1  0            999 V2000
    0.8416    0.6996    1.9051 C   0  0  2  0  0  0
    0.5899   -0.3562    0.8504 C   0  0  2  0  0  0
    0.9928   -0.1024    3.1922 C   0  0  2  0  0  0
   -0.0932   -1.4813    1.6199 C   0  0  2  0  0  0
    2.4408   -0.4290    3.5332 C   0  0
   -1.6134   -1.4178    1.5527 C   0  0
    0.2939   -1.3446    2.9987 O   0  0
   -0.3060    1.5354    2.0270 O   0  0
    1.8457   -0.8131    0.3561 O   0  0
    2.4711   -1.1628    4.7464 O   0  0
   -2.1500   -2.5068    2.2859 O   0  0
    1.6966    1.3188    1.6738 H   0  0
    0.0110    0.0254    0.0212 H   0  0
    0.5375    0.4109    4.0405 H   0  0
    0.2351   -2.4614    1.2732 H   0  0
    3.0172    0.4905    3.6593 H   0  0
    2.8902   -1.0324    2.7412 H   0  0
   -1.9504   -1.4870    0.5158 H   0  0
   -1.9738   -0.4833    1.9890 H   0  0
   -0.1067    2.1979    2.7107 H   0  0
    1.6594   -1.4889   -0.3183 H   0  0
    3.4042   -1.3559    4.9374 H   0  0
   -3.1175   -2.4398    2.2251 H   0  0
  1  2  1  0
  1  3  1  0
  1  8  1  0
  2  4  1  0
  2  9  1  0
  3  5  1  0
  3  7  1  0
  4  6  1  0
  4  7  1  0
  5 10  1  0
  6 11  1  0
  1 12  1  0
  2 13  1  0
  3 14  1  0
  4 15  1  0
  5 16  1  0
  5 17  1  0
  6 18  1  0
  6 19  1  0
  8 20  1  0
  9 21  1  0
 10 22  1  0
 11 23  1  0
M  END
> <Name>
BR010313

$$$$
BR010314
  SciTegic05062102053D

 60 65  0  0  1  0            999 V2000
   -1.8700    6.4451   -0.2854 C   0  0
   -0.3475   -2.9336    6.0590 C   0  0
   -3.2820   -2.8632   -4.6211 C   0  0
   -0.4827    6.5595   -0.3730 C   0  0
   -2.4632    5.1841   -0.2224 C   0  0
    0.7964   -3.3938    5.4069 C   0  0
   -1.3998   -2.3907    5.3217 C   0  0
   -1.9859   -2.5788   -5.0509 C   0  0
   -3.8122   -2.1975   -3.5159 C   0  0
    0.3116    5.4131   -0.3977 C   0  0
   -1.6690    4.0377   -0.2471 C   0  0
    0.8881   -3.3111    4.0176 C   0  0
   -1.3081   -2.3079    3.9323 C   0  0
   -1.2198   -1.6288   -4.3755 C   0  0
   -3.0461   -1.2475   -2.8405 C   0  0
   -0.2816    4.1522   -0.3347 C   0  0
   -0.1642   -2.7681    3.2802 C   0  0
   -1.7500   -0.9631   -3.2702 C   0  0
    1.5842    1.3718   -1.8308 C   0  0
   -1.3368   -2.3275   -0.1804 C   0  0
    0.5770    2.9115   -0.3617 C   0  0  2  0  0  0
   -0.0653   -2.6779    1.7736 C   0  0  1  0  0  0
    1.1180    0.2387   -0.9260 C   0  0  1  0  0  0
   -0.9774   -0.8475   -0.2018 C   0  0  1  0  0  0
    0.7177    0.7099    0.4701 C   0  0  2  0  0  0
   -0.1354   -0.4278    1.0018 C   0  0  2  0  0  0
   -0.9265    0.0587   -2.5431 C   0  0
   -0.1116   -0.5283   -1.4275 N   0  3
    0.7453    2.5196   -1.7260 O   0  0
   -1.3656   -2.7742    1.1742 O   0  0
   -0.0693    1.8985    0.4105 O   0  0
    0.6912   -1.5097    1.4219 O   0  0
   -2.4882    7.3378   -0.2648 H   0  0
   -0.4193   -2.9993    7.1407 H   0  0
   -3.8788   -3.6020   -5.1480 H   0  0
   -0.0206    7.5413   -0.4209 H   0  0
   -3.5433    5.0947   -0.1530 H   0  0
    1.6154   -3.8176    5.9808 H   0  0
   -2.2910   -2.0333    5.8289 H   0  0
   -1.5733   -3.0963   -5.9121 H   0  0
   -4.8217   -2.4179   -3.1817 H   0  0
    1.3917    5.5120   -0.4663 H   0  0
   -2.1399    3.0595   -0.1977 H   0  0
    1.7833   -3.6720    3.5180 H   0  0
   -2.1329   -1.8833    3.3661 H   0  0
   -0.2108   -1.4138   -4.7174 H   0  0
   -3.4674   -0.7339   -1.9803 H   0  0
    2.5981    1.6747   -1.5402 H   0  0
    1.6458    1.0717   -2.8806 H   0  0
   -2.3109   -2.4840   -0.6270 H   0  0
   -0.6126   -2.9236   -0.7181 H   0  0
    1.5559    3.1651    0.0859 H   0  0
    0.5035   -3.5361    1.4687 H   0  0
    1.9040   -0.5244   -0.8676 H   0  0
   -1.8816   -0.2307   -0.2866 H   0  0
    1.6030    0.8971    1.0923 H   0  0
   -0.7817   -0.1219    1.8367 H   0  0
   -0.2222    0.5542   -3.2200 H   0  0
   -1.5603    0.8323   -2.0964 H   0  0
    0.2420   -1.4233   -1.7858 H   0  0
  1  4  2  0
  1  5  1  0
  2  6  2  0
  2  7  1  0
  3  8  2  0
  3  9  1  0
  4 10  1  0
  5 11  2  0
  6 12  1  0
  7 13  2  0
  8 14  1  0
  9 15  2  0
 10 16  2  0
 11 16  1  0
 12 17  2  0
 13 17  1  0
 14 18  2  0
 15 18  1  0
 16 21  1  0
 17 22  1  0
 18 27  1  0
 19 23  1  0
 19 29  1  0
 20 24  1  0
 20 30  1  0
 21 29  1  0
 21 31  1  0
 22 30  1  0
 22 32  1  0
 23 25  1  0
 23 28  1  0
 24 26  1  0
 24 28  1  0
 25 26  1  0
 25 31  1  0
 26 32  1  0
 27 28  1  0
  1 33  1  0
  2 34  1  0
  3 35  1  0
  4 36  1  0
  5 37  1  0
  6 38  1  0
  7 39  1  0
  8 40  1  0
  9 41  1  0
 10 42  1  0
 11 43  1  0
 12 44  1  0
 13 45  1  0
 14 46  1  0
 15 47  1  0
 19 48  1  0
 19 49  1  0
 20 50  1  0
 20 51  1  0
 21 52  1  0
 22 53  1  0
 23 54  1  0
 24 55  1  0
 25 56  1  0
 26 57  1  0
 27 58  1  0
 27 59  1  0
 28 60  1  0
M  CHG  1  28   1
M  END
> <Name>
BR010314

$$$$
BR010315
  SciTegic05062102053D

 47 51  0  0  1  0            999 V2000
   -0.6979   -6.4166    1.9235 C   0  0
   -1.2008    4.3940    4.5437 C   0  0
   -1.3804   -6.4215    0.7070 C   0  0
   -0.0864   -5.2473    2.3755 C   0  0
   -2.0795    3.5788    3.8303 C   0  0
    0.0221    4.7609    3.9819 C   0  0
   -1.4512   -5.2570   -0.0576 C   0  0
   -0.1572   -4.0828    1.6109 C   0  0
   -1.7352    3.1303    2.5551 C   0  0
    0.3664    4.3124    2.7068 C   0  0
   -0.8396   -4.0876    0.3944 C   0  0
   -0.5122    3.4971    1.9933 C   0  0
    0.1508   -1.6841   -2.1862 C   0  0
    1.8015    1.6774    1.0131 C   0  0
   -0.9157   -2.8277   -0.4323 C   0  0  2  0  0  0
   -0.1356    3.0077    0.6015 C   0  0  1  0  0  0
   -0.0149   -0.3897   -1.4088 C   0  0  1  0  0  0
    1.0047    0.4361    0.6710 C   0  0  1  0  0  0
   -0.9969   -0.4713   -0.2380 C   0  0  2  0  0  0
   -0.5068    0.6390    0.6858 C   0  0  2  0  0  0
    1.2921   -0.0038   -0.7479 N   0  3
    0.2079   -2.8105   -1.3155 O   0  0
    1.2702    2.8379    0.3818 O   0  0
   -0.9085   -1.7135    0.4581 O   0  0
   -0.8969    1.8929    0.1297 O   0  0
   -0.6440   -7.3231    2.5193 H   0  0
   -1.4696    4.7442    5.5360 H   0  0
   -1.8575   -7.3316    0.3554 H   0  0
    0.4441   -5.2428    3.3231 H   0  0
   -3.0322    3.2939    4.2671 H   0  0
    0.7060    5.3965    4.5366 H   0  0
   -1.9849   -5.2701   -1.0043 H   0  0
    0.3223   -3.1764    1.9710 H   0  0
   -2.4260    2.4952    2.0067 H   0  0
    1.3214    4.6032    2.2771 H   0  0
   -0.6950   -1.8225   -2.8703 H   0  0
    1.0612   -1.6726   -2.7948 H   0  0
    1.8052    1.8375    2.0974 H   0  0
    2.8476    1.5732    0.7055 H   0  0
   -1.8580   -2.8530   -1.0065 H   0  0
   -0.4227    3.8531   -0.0785 H   0  0
   -0.2541    0.4437   -2.0791 H   0  0
    1.3052   -0.4095    1.3002 H   0  0
   -2.0280   -0.3165   -0.5745 H   0  0
   -0.9118    0.5444    1.6994 H   0  0
    1.9545   -0.7919   -0.7374 H   0  0
    1.7438    0.7469   -1.2887 H   0  0
  1  3  2  0
  1  4  1  0
  2  5  2  0
  2  6  1  0
  3  7  1  0
  4  8  2  0
  5  9  1  0
  6 10  2  0
  7 11  2  0
  8 11  1  0
  9 12  2  0
 10 12  1  0
 11 15  1  0
 12 16  1  0
 13 17  1  0
 13 22  1  0
 14 18  1  0
 14 23  1  0
 15 22  1  0
 15 24  1  0
 16 23  1  0
 16 25  1  0
 17 19  1  0
 17 21  1  0
 18 20  1  0
 18 21  1  0
 19 20  1  0
 19 24  1  0
 20 25  1  0
  1 26  1  0
  2 27  1  0
  3 28  1  0
  4 29  1  0
  5 30  1  0
  6 31  1  0
  7 32  1  0
  8 33  1  0
  9 34  1  0
 10 35  1  0
 13 36  1  0
 13 37  1  0
 14 38  1  0
 14 39  1  0
 15 40  1  0
 16 41  1  0
 17 42  1  0
 18 43  1  0
 19 44  1  0
 20 45  1  0
 21 46  1  0
 21 47  1  0
M  CHG  1  21   1
M  END
> <Name>
BR010315

$$$$
BR010316
  SciTegic05062102053D

 50 54  0  0  1  0            999 V2000
   -3.2805   -5.0324    3.0303 C   0  0
    1.8984    4.7954    4.0311 C   0  0
   -4.1826   -4.6977    2.0205 C   0  0
   -2.0712   -4.3460    3.1409 C   0  0
    0.6145    4.4647    3.5979 C   0  0
    3.0028    4.4937    3.2342 C   0  0
   -3.8754   -3.6766    1.1212 C   0  0
   -1.7640   -3.3250    2.2416 C   0  0
    0.4348    3.8322    2.3677 C   0  0
    2.8231    3.8612    2.0040 C   0  0
   -2.6661   -2.9903    1.2317 C   0  0
    1.5392    3.5305    1.5707 C   0  0
   -1.3387   -1.4850   -1.8345 C   0  0
    2.4814    0.7644    0.5221 C   0  0
   -2.3330   -1.8859    0.2591 C   0  0  2  0  0  0
    1.3438    2.8399    0.2278 C   0  0  1  0  0  0
   -0.5981   -0.2948   -1.2388 C   0  0  1  0  0  0
    1.1499    0.0370    0.4801 C   0  0  1  0  0  0
   -1.1901    0.1746    0.0941 C   0  0  2  0  0  0
   -0.0452    0.9501    0.7273 C   0  0  2  0  0  0
    1.4401   -1.9204   -1.0845 C   0  0
    0.8885   -0.5342   -0.9213 N   0  3
   -1.6469   -2.4682   -0.8510 O   0  0
    2.4307    2.0013   -0.1816 O   0  0
   -1.5301   -0.9227    0.9399 O   0  0
    0.0747    2.2037    0.0587 O   0  0
   -3.5204   -5.8265    3.7313 H   0  0
    2.0380    5.2891    4.9884 H   0  0
   -5.1247   -5.2313    1.9349 H   0  0
   -1.3691   -4.6056    3.9277 H   0  0
   -0.2456    4.7006    4.2178 H   0  0
    4.0024    4.7520    3.5707 H   0  0
   -4.5842   -3.4228    0.3374 H   0  0
   -0.8194   -2.7957    2.3353 H   0  0
   -0.5692    3.5781    2.0383 H   0  0
    3.6894    3.6299    1.3898 H   0  0
   -2.2860   -1.1421   -2.2693 H   0  0
   -0.7840   -1.9586   -2.6492 H   0  0
    2.7705    0.9617    1.5610 H   0  0
    3.2830    0.1620    0.0832 H   0  0
   -3.2808   -1.4274   -0.0735 H   0  0
    1.3412    3.6774   -0.5185 H   0  0
   -0.5864    0.5272   -1.9653 H   0  0
    1.1429   -0.8166    1.1687 H   0  0
   -2.0776    0.7976   -0.0661 H   0  0
   -0.2023    1.1180    1.7987 H   0  0
    0.9091   -2.5749   -0.3908 H   0  0
    1.2733   -2.2268   -2.1190 H   0  0
    2.5063   -1.8852   -0.8527 H   0  0
    1.4091    0.0539   -1.5870 H   0  0
  1  3  2  0
  1  4  1  0
  2  5  2  0
  2  6  1  0
  3  7  1  0
  4  8  2  0
  5  9  1  0
  6 10  2  0
  7 11  2  0
  8 11  1  0
  9 12  2  0
 10 12  1  0
 11 15  1  0
 12 16  1  0
 13 17  1  0
 13 23  1  0
 14 18  1  0
 14 24  1  0
 15 23  1  0
 15 25  1  0
 16 24  1  0
 16 26  1  0
 17 19  1  0
 17 22  1  0
 18 20  1  0
 18 22  1  0
 19 20  1  0
 19 25  1  0
 20 26  1  0
 21 22  1  0
  1 27  1  0
  2 28  1  0
  3 29  1  0
  4 30  1  0
  5 31  1  0
  6 32  1  0
  7 33  1  0
  8 34  1  0
  9 35  1  0
 10 36  1  0
 13 37  1  0
 13 38  1  0
 14 39  1  0
 14 40  1  0
 15 41  1  0
 16 42  1  0
 17 43  1  0
 18 44  1  0
 19 45  1  0
 20 46  1  0
 21 47  1  0
 21 48  1  0
 21 49  1  0
 22 50  1  0
M  CHG  1  22   1
M  END
> <Name>
BR010316

$$$$
BR010317
  SciTegic05062102053D

 53 57  0  0  1  0            999 V2000
    2.7980    0.4362   -6.2376 C   0  0
   -6.2033    2.1329   -0.1678 C   0  0
    3.6658    1.2330   -5.4908 C   0  0
    1.7172   -0.1898   -5.6166 C   0  0
   -5.0162    2.8516   -0.3083 C   0  0
   -6.2192    0.9502    0.5717 C   0  0
    3.4528    1.4038   -4.1230 C   0  0
    1.5043   -0.0191   -4.2487 C   0  0
   -3.8450    2.3877    0.2905 C   0  0
   -5.0480    0.4862    1.1704 C   0  0
    2.3720    0.7777   -3.5018 C   0  0
   -3.8608    1.2050    1.0299 C   0  0
    2.7188    0.0688    0.0793 C   0  0
   -2.1538   -1.3936    0.6037 C   0  0
    2.1411    0.9619   -2.0218 C   0  0  2  0  0  0
   -2.5825    0.6978    1.6836 C   0  0  1  0  0  0
    1.2633    0.2116    0.5129 C   0  0  1  0  0  0
   -0.9472   -0.7742   -0.0832 C   0  0  1  0  0  0
    0.4485    1.1346   -0.3923 C   0  0  2  0  0  0
   -0.9888    0.7471   -0.0969 C   0  0  2  0  0  0
    0.3869   -1.5990    2.0121 C   0  0
    1.0464   -2.2836   -0.2590 C   0  0
    0.4454   -1.1358    0.5544 N   0  3
    2.8504   -0.0704   -1.3330 O   0  0
   -2.4990   -0.7273    1.8137 O   0  0
    0.7361    0.9050   -1.7697 O   0  0
   -1.3769    1.2745    1.1680 O   0  0
    2.9632    0.3044   -7.3030 H   0  0
   -7.1155    2.4950   -0.6329 H   0  0
    4.5067    1.7214   -5.9745 H   0  0
    1.0408   -0.8094   -6.1979 H   0  0
   -5.0039    3.7731   -0.8831 H   0  0
   -7.1435    0.3909    0.6822 H   0  0
    4.1342    2.0263   -3.5490 H   0  0
    0.6597   -0.5108   -3.7732 H   0  0
   -2.9246    2.9542    0.1755 H   0  0
   -5.0698   -0.4363    1.7446 H   0  0
    3.2730    0.9691    0.3735 H   0  0
    3.2192   -0.7707    0.5705 H   0  0
   -3.0201   -1.3416   -0.0672 H   0  0
   -2.0034   -2.4562    0.8172 H   0  0
    2.5413    1.9539   -1.7364 H   0  0
   -2.6420    1.0721    2.7391 H   0  0
    1.2359    0.6012    1.5383 H   0  0
   -0.9005   -1.1415   -1.1164 H   0  0
    0.6439    2.1872   -0.1550 H   0  0
   -1.6694    1.1172   -0.8724 H   0  0
   -0.1789   -2.5319    2.0436 H   0  0
    1.4119   -1.7497    2.3562 H   0  0
   -0.1107   -0.8185    2.5909 H   0  0
    0.3918   -3.1500   -0.1481 H   0  0
    1.0998   -1.9626   -1.3010 H   0  0
    2.0415   -2.4902    0.1395 H   0  0
  1  3  2  0
  1  4  1  0
  2  5  2  0
  2  6  1  0
  3  7  1  0
  4  8  2  0
  5  9  1  0
  6 10  2  0
  7 11  2  0
  8 11  1  0
  9 12  2  0
 10 12  1  0
 11 15  1  0
 12 16  1  0
 13 17  1  0
 13 24  1  0
 14 18  1  0
 14 25  1  0
 15 24  1  0
 15 26  1  0
 16 25  1  0
 16 27  1  0
 17 19  1  0
 17 23  1  0
 18 20  1  0
 18 23  1  0
 19 20  1  0
 19 26  1  0
 20 27  1  0
 21 23  1  0
 22 23  1  0
  1 28  1  0
  2 29  1  0
  3 30  1  0
  4 31  1  0
  5 32  1  0
  6 33  1  0
  7 34  1  0
  8 35  1  0
  9 36  1  0
 10 37  1  0
 13 38  1  0
 13 39  1  0
 14 40  1  0
 14 41  1  0
 15 42  1  0
 16 43  1  0
 17 44  1  0
 18 45  1  0
 19 46  1  0
 20 47  1  0
 21 48  1  0
 21 49  1  0
 21 50  1  0
 22 51  1  0
 22 52  1  0
 22 53  1  0
M  CHG  1  23   1
M  END
> <Name>
BR010317

$$$$
BR010318
  SciTegic05062102053D

 25 25  0  0  1  0            999 V2000
    0.8530    0.7595   -0.4298 C   0  0  1  0  0  0
   -0.6412    0.7234   -0.7322 C   0  0  1  0  0  0
    0.9710   -0.0004    0.8941 C   0  0  2  0  0  0
   -1.0482   -0.6948   -0.3300 C   0  0  2  0  0  0
    2.2875   -0.7085    1.1558 C   0  0
   -2.4985   -0.8881    0.0708 C   0  0
   -0.1475   -1.0176    0.8391 N   0  3
    1.5541    0.1084   -1.4813 O   0  0
   -1.3302    1.7180    0.0136 O   0  0
    2.2228   -1.3451    2.4219 O   0  0
   -2.7060   -2.2522    0.4005 O   0  0
    1.2345    1.7818   -0.3351 H   0  0
   -0.8467    0.8938   -1.8074 H   0  0
    0.7187    0.6615    1.7296 H   0  0
   -0.7692   -1.4029   -1.1177 H   0  0
    3.1112    0.0098    1.1617 H   0  0
    2.4727   -1.4639    0.3879 H   0  0
   -3.1609   -0.6183   -0.7557 H   0  0
   -2.7384   -0.2723    0.9414 H   0  0
    0.2171   -1.9751    0.7382 H   0  0
   -0.6662   -1.0030    1.7283 H   0  0
    1.3518    0.5956   -2.2962 H   0  0
   -0.9554    2.5743   -0.2487 H   0  0
    3.0767   -1.7877    2.5598 H   0  0
   -3.6401   -2.3434    0.6518 H   0  0
  1  2  1  0
  1  3  1  0
  1  8  1  0
  2  4  1  0
  2  9  1  0
  3  5  1  0
  3  7  1  0
  4  6  1  0
  4  7  1  0
  5 10  1  0
  6 11  1  0
  1 12  1  0
  2 13  1  0
  3 14  1  0
  4 15  1  0
  5 16  1  0
  5 17  1  0
  6 18  1  0
  6 19  1  0
  7 20  1  0
  7 21  1  0
  8 22  1  0
  9 23  1  0
 10 24  1  0
 11 25  1  0
M  CHG  1   7   1
M  END
> <Name>
BR010318

$$$$
BR010319
  SciTegic05062102053D

 28 28  0  0  1  0            999 V2000
    0.3355    0.5588   -1.2214 C   0  0  1  0  0  0
   -0.4249    1.3637   -0.1785 C   0  0  1  0  0  0
    1.0917   -0.4727   -0.3826 C   0  0  2  0  0  0
   -0.9545    0.2896    0.7752 C   0  0  2  0  0  0
   -0.4500   -2.1786    0.8278 C   0  0
    1.5864   -1.6917   -1.1437 C   0  0
   -1.2205    0.7420    2.2018 C   0  0
    0.1349   -0.7957    0.7718 N   0  3
   -0.5676   -0.0774   -2.1151 O   0  0
    0.4690    2.2619    0.4647 O   0  0
    2.4624   -1.2630   -2.1728 O   0  0
   -2.1173   -0.1719    2.8102 O   0  0
    1.0296    1.1761   -1.8012 H   0  0
   -1.2458    1.9402   -0.6182 H   0  0
    1.9471    0.0140    0.0973 H   0  0
   -1.8536   -0.1676    0.3430 H   0  0
   -1.0462   -2.3258   -0.0746 H   0  0
    0.3771   -2.8897    0.8722 H   0  0
   -1.0712   -2.2426    1.7233 H   0  0
    0.7450   -2.2250   -1.5911 H   0  0
    2.1264   -2.3631   -0.4727 H   0  0
   -1.6691    1.7374    2.2046 H   0  0
   -0.2894    0.7611    2.7716 H   0  0
    0.6876   -0.6915    1.6328 H   0  0
   -1.0822    0.6266   -2.5422 H   0  0
    0.8285    2.8422   -0.2259 H   0  0
    2.7619   -2.0604   -2.6408 H   0  0
   -2.2689    0.1409    3.7179 H   0  0
  1  2  1  0
  1  3  1  0
  1  9  1  0
  2  4  1  0
  2 10  1  0
  3  6  1  0
  3  8  1  0
  4  7  1  0
  4  8  1  0
  5  8  1  0
  6 11  1  0
  7 12  1  0
  1 13  1  0
  2 14  1  0
  3 15  1  0
  4 16  1  0
  5 17  1  0
  5 18  1  0
  5 19  1  0
  6 20  1  0
  6 21  1  0
  7 22  1  0
  7 23  1  0
  8 24  1  0
  9 25  1  0
 10 26  1  0
 11 27  1  0
 12 28  1  0
M  CHG  1   8   1
M  END
> <Name>
BR010319

$$$$
BR010320
  SciTegic05062102053D

 31 31  0  0  1  0            999 V2000
   -0.0416    0.1763    1.5476 C   0  0  1  0  0  0
   -1.3400   -0.0562    0.7929 C   0  0  1  0  0  0
    1.0200   -0.3854    0.6011 C   0  0  2  0  0  0
   -1.0014    0.3844   -0.6317 C   0  0  2  0  0  0
    1.2334    1.1152   -1.5148 C   0  0
    0.6745   -1.2841   -1.7185 C   0  0
    2.4501    0.0654    0.8610 C   0  0
   -1.9416   -0.1066   -1.7229 C   0  0
    0.4967   -0.0436   -0.8416 N   0  3
    0.1340    1.5651    1.7863 O   0  0
   -1.6944   -1.4297    0.8597 O   0  0
    2.8183   -0.3246    2.1727 O   0  0
   -3.2479    0.3667   -1.4441 O   0  0
   -0.0281   -0.3492    2.5088 H   0  0
   -2.1633    0.5390    1.2029 H   0  0
    0.9887   -1.4807    0.6750 H   0  0
   -1.0004    1.4824   -0.6509 H   0  0
    0.7915    1.2634   -2.5018 H   0  0
    1.1048    2.0010   -0.8899 H   0  0
    2.2870    0.8403   -1.5940 H   0  0
    0.3099   -1.0414   -2.7183 H   0  0
    1.7379   -1.5303   -1.7374 H   0  0
    0.0921   -2.0935   -1.2742 H   0  0
    2.5230    1.1510    0.7768 H   0  0
    3.1279   -0.4024    0.1450 H   0  0
   -1.9536   -1.1976   -1.7457 H   0  0
   -1.6223    0.2751   -2.6942 H   0  0
   -0.6262    1.8580    2.3151 H   0  0
   -1.8013   -1.6472    1.8002 H   0  0
    3.7326   -0.0255    2.3121 H   0  0
   -3.8262    0.0398   -2.1539 H   0  0
  1  2  1  0
  1  3  1  0
  1 10  1  0
  2  4  1  0
  2 11  1  0
  3  7  1  0
  3  9  1  0
  4  8  1  0
  4  9  1  0
  5  9  1  0
  6  9  1  0
  7 12  1  0
  8 13  1  0
  1 14  1  0
  2 15  1  0
  3 16  1  0
  4 17  1  0
  5 18  1  0
  5 19  1  0
  5 20  1  0
  6 21  1  0
  6 22  1  0
  6 23  1  0
  7 24  1  0
  7 25  1  0
  8 26  1  0
  8 27  1  0
 10 28  1  0
 11 29  1  0
 12 30  1  0
 13 31  1  0
M  CHG  1   9   1
M  END
> <Name>
BR010320

$$$$
BR010321
  SciTegic05062102053D

 41 42  0  0  1  0            999 V2000
    0.2225    2.2283   -5.3856 C   0  0
    1.1430    1.1956   -5.2074 C   0  0
   -0.3191    2.8790   -4.2770 C   0  0
    1.5219    0.8135   -3.9205 C   0  0
    0.0598    2.4968   -2.9901 C   0  0
    0.9803    1.4641   -2.8118 C   0  0
   -0.0416    0.1763    1.5476 C   0  0  1  0  0  0
   -1.3400   -0.0562    0.7929 C   0  0  1  0  0  0
    1.0200   -0.3854    0.6011 C   0  0  2  0  0  0
   -1.0014    0.3844   -0.6317 C   0  0  2  0  0  0
    0.5276   -1.2214   -1.8166 C   0  0
    1.3872    1.0533   -1.4274 C   0  0
    2.4501    0.0654    0.8610 C   0  0
   -1.9416   -0.1066   -1.7229 C   0  0
    0.4967   -0.0436   -0.8416 N   0  3
    0.1340    1.5651    1.7863 O   0  0
   -1.6944   -1.4297    0.8597 O   0  0
    2.8183   -0.3246    2.1727 O   0  0
   -3.2479    0.3667   -1.4441 O   0  0
   -0.0714    2.5267   -6.3877 H   0  0
    1.5656    0.6896   -6.0705 H   0  0
   -1.0350    3.6838   -4.4154 H   0  0
    2.2396    0.0076   -3.7912 H   0  0
   -0.3675    3.0093   -2.1322 H   0  0
   -0.0281   -0.3492    2.5088 H   0  0
   -2.1633    0.5390    1.2029 H   0  0
    0.9887   -1.4807    0.6750 H   0  0
   -1.0004    1.4824   -0.6509 H   0  0
    0.1455   -0.8701   -2.7768 H   0  0
    1.5632   -1.5554   -1.9045 H   0  0
   -0.1059   -2.0106   -1.4073 H   0  0
    2.4120    0.6670   -1.4142 H   0  0
    1.3408    1.9000   -0.7340 H   0  0
    2.5230    1.1510    0.7768 H   0  0
    3.1279   -0.4024    0.1450 H   0  0
   -1.9536   -1.1976   -1.7457 H   0  0
   -1.6223    0.2751   -2.6942 H   0  0
   -0.6262    1.8580    2.3151 H   0  0
   -1.8013   -1.6472    1.8002 H   0  0
    3.7326   -0.0255    2.3121 H   0  0
   -3.8262    0.0398   -2.1539 H   0  0
  1  2  1  0
  1  3  2  0
  2  4  2  0
  3  5  1  0
  4  6  1  0
  5  6  2  0
  6 12  1  0
  7  8  1  0
  7  9  1  0
  7 16  1  0
  8 10  1  0
  8 17  1  0
  9 13  1  0
  9 15  1  0
 10 14  1  0
 10 15  1  0
 11 15  1  0
 12 15  1  0
 13 18  1  0
 14 19  1  0
  1 20  1  0
  2 21  1  0
  3 22  1  0
  4 23  1  0
  5 24  1  0
  7 25  1  0
  8 26  1  0
  9 27  1  0
 10 28  1  0
 11 29  1  0
 11 30  1  0
 11 31  1  0
 12 32  1  0
 12 33  1  0
 13 34  1  0
 13 35  1  0
 14 36  1  0
 14 37  1  0
 16 38  1  0
 17 39  1  0
 18 40  1  0
 19 41  1  0
M  CHG  1  15   1
M  END
> <Name>
BR010321

$$$$
BR010322
  SciTegic05062102053D

 55 56  0  0  1  0            999 V2000
   -1.2223    9.4436    1.7673 C   0  0
    0.1018    9.0165    1.8662 C   0  0
   -2.2636    8.5559    2.0384 C   0  0
    0.3848    7.7016    2.2359 C   0  0
   -1.9807    7.2410    2.4081 C   0  0
   -0.6565    6.8139    2.5069 C   0  0
   -2.8394    0.4488    2.2011 C   0  0
   -2.3128   -2.6926    1.1946 C   0  0
    1.5142   -4.4933   -0.3486 C   0  0
   -0.0088    3.2643    1.9306 C   0  0
    0.2960    1.1926    0.5829 C   0  0  1  0  0  0
   -1.0112    0.3986    0.7048 C   0  0  1  0  0  0
   -0.7985   -1.0797    0.3644 C   0  0  2  0  0  0
   -0.0454   -1.2335   -0.9595 C   0  0  2  0  0  0
    0.9936    0.8864   -0.7463 C   0  0  2  0  0  0
   -3.1876    0.5652    3.6541 C   0  0
   -3.6889   -3.2508    0.9928 C   0  0
    2.3764   -4.8804    0.8145 C   0  0
   -0.3529    5.3992    2.9045 C   0  0
    0.2929   -2.6897   -1.2646 C   0  0
    0.0307    2.6090    0.7196 N   0  0
   -3.6650    0.3271    1.3063 O   0  0
   -1.5343   -3.0831    2.0541 O   0  0
    1.2199   -5.2490   -1.2648 O   0  0
    0.1705    2.7518    3.0305 O   0  0
    1.1882   -0.5162   -0.9068 O   0  0
   -1.4844    0.4996    2.0492 O   0  0
   -2.0784   -1.7016    0.2842 O   0  0
    1.1170   -3.1878   -0.2266 O   0  0
   -0.2807    4.5879    1.7266 O   0  0
    2.6040    1.6621   -0.8106 Cl  0  0
   -1.4424   10.4678    1.4807 H   0  0
    0.9128    9.7078    1.6563 H   0  0
   -3.2946    8.8884    1.9626 H   0  0
    1.4195    7.3776    2.3102 H   0  0
   -2.7984    6.5564    2.6172 H   0  0
    0.9478    0.9230    1.4238 H   0  0
   -1.7873    0.8300    0.0597 H   0  0
   -0.2460   -1.5561    1.1845 H   0  0
   -0.6506   -0.8518   -1.7924 H   0  0
    0.4276    1.2783   -1.5994 H   0  0
   -3.2246   -0.4284    4.1074 H   0  0
   -4.1474    1.0759    3.7658 H   0  0
   -2.4195    1.1531    4.1651 H   0  0
   -4.4073   -2.6950    1.6004 H   0  0
   -3.7011   -4.3116    1.2554 H   0  0
   -3.9704   -3.1499   -0.0594 H   0  0
    3.4244   -4.6734    0.5845 H   0  0
    2.2342   -5.9391    1.0455 H   0  0
    2.0890   -4.2918    1.6907 H   0  0
    0.6013    5.3386    3.4389 H   0  0
   -1.1336    5.0058    3.5644 H   0  0
    0.8271   -2.7566   -2.2124 H   0  0
   -0.6210   -3.2814   -1.3147 H   0  0
   -0.1352    3.1487   -0.1227 H   0  0
  1  2  1  0
  1  3  2  0
  2  4  2  0
  3  5  1  0
  4  6  1  0
  5  6  2  0
  6 19  1  0
  7 16  1  0
  7 22  2  0
  7 27  1  0
  8 17  1  0
  8 23  2  0
  8 28  1  0
  9 18  1  0
  9 24  2  0
  9 29  1  0
 10 21  1  0
 10 25  2  0
 10 30  1  0
 11 12  1  0
 11 15  1  0
 11 21  1  0
 12 13  1  0
 12 27  1  0
 13 14  1  0
 13 28  1  0
 14 20  1  0
 14 26  1  0
 15 26  1  0
 15 31  1  0
 19 30  1  0
 20 29  1  0
  1 32  1  0
  2 33  1  0
  3 34  1  0
  4 35  1  0
  5 36  1  0
 11 37  1  0
 12 38  1  0
 13 39  1  0
 14 40  1  0
 15 41  1  0
 16 42  1  0
 16 43  1  0
 16 44  1  0
 17 45  1  0
 17 46  1  0
 17 47  1  0
 18 48  1  0
 18 49  1  0
 18 50  1  0
 19 51  1  0
 19 52  1  0
 20 53  1  0
 20 54  1  0
 21 55  1  0
M  END
> <Name>
BR010322

$$$$
BR010323
  SciTegic05062102053D

 51 53  0  0  1  0            999 V2000
   -0.4349    7.0579    1.7128 C   0  0
   -1.2302    7.0107    0.5496 C   0  0
    0.1987    5.9099    2.1972 C   0  0
   -1.4073    5.8148   -0.1521 C   0  0
    0.0100    4.7413    1.4886 C   0  0
   -0.7723    4.6948    0.3440 C   0  0
    0.5292    3.3971    1.7374 C   0  0
   -0.7643    3.3201   -0.1556 C   0  0
   -2.6991    1.0476    2.1975 C   0  0
   -2.2585   -2.7158    1.2001 C   0  0
    1.5888   -4.4793   -0.3354 C   0  0
    0.3107    1.1952    0.5855 C   0  0  1  0  0  0
   -0.9883    0.3879    0.7070 C   0  0  1  0  0  0
   -0.7599   -1.0887    0.3692 C   0  0  2  0  0  0
   -0.0035   -1.2367   -0.9535 C   0  0  2  0  0  0
    1.0132    0.8941   -0.7423 C   0  0  2  0  0  0
   -3.0657    1.0842    3.6502 C   0  0
   -3.6286   -3.2884    0.9974 C   0  0
    2.4534   -4.8556    0.8295 C   0  0
    0.3502   -2.6898   -1.2559 C   0  0
    0.0307    2.6090    0.7196 N   0  0
    1.2504    3.1052    2.6731 O   0  0
   -1.3633    2.9542   -1.1498 O   0  0
   -3.4173    1.4645    1.2989 O   0  0
   -1.4772   -3.0968    2.0611 O   0  0
    1.3035   -5.2395   -1.2508 O   0  0
    1.2225   -0.5067   -0.9003 O   0  0
   -1.4643    0.4861    2.0506 O   0  0
   -2.0332   -1.7238    0.2884 O   0  0
    1.1780   -3.1777   -0.2160 O   0  0
    2.6156    1.6863   -0.8058 Cl  0  0
   -0.3143    8.0016    2.2386 H   0  0
   -1.7117    7.9185    0.1955 H   0  0
    0.8096    5.9465    3.0916 H   0  0
   -2.0187    5.7790   -1.0459 H   0  0
    0.9643    0.9337    1.4277 H   0  0
   -1.7680    0.8103    0.0602 H   0  0
   -0.2036   -1.5580    1.1907 H   0  0
   -0.6116   -0.8626   -1.7877 H   0  0
    0.4443    1.2788   -1.5968 H   0  0
   -3.5884    0.1645    3.9241 H   0  0
   -3.6903    1.9578    3.8532 H   0  0
   -2.1554    1.1603    4.2521 H   0  0
   -4.3535   -2.7391    1.6031 H   0  0
   -3.6302   -4.3489    1.2616 H   0  0
   -3.9098   -3.1921   -0.0554 H   0  0
    3.4996   -4.6382    0.6004 H   0  0
    2.3219   -5.9154    1.0619 H   0  0
    2.1588   -4.2687    1.7043 H   0  0
    0.8862   -2.7527   -2.2028 H   0  0
   -0.5576   -3.2910   -1.3062 H   0  0
  1  2  1  0
  1  3  2  0
  2  4  2  0
  3  5  1  0
  4  6  1  0
  5  6  2  0
  5  7  1  0
  6  8  1  0
  7 21  1  0
  7 22  2  0
  8 21  1  0
  8 23  2  0
  9 17  1  0
  9 24  2  0
  9 28  1  0
 10 18  1  0
 10 25  2  0
 10 29  1  0
 11 19  1  0
 11 26  2  0
 11 30  1  0
 12 13  1  0
 12 16  1  0
 12 21  1  0
 13 14  1  0
 13 28  1  0
 14 15  1  0
 14 29  1  0
 15 20  1  0
 15 27  1  0
 16 27  1  0
 16 31  1  0
 20 30  1  0
  1 32  1  0
  2 33  1  0
  3 34  1  0
  4 35  1  0
 12 36  1  0
 13 37  1  0
 14 38  1  0
 15 39  1  0
 16 40  1  0
 17 41  1  0
 17 42  1  0
 17 43  1  0
 18 44  1  0
 18 45  1  0
 18 46  1  0
 19 47  1  0
 19 48  1  0
 19 49  1  0
 20 50  1  0
 20 51  1  0
M  END
> <Name>
BR010323

$$$$
BR010324
  SciTegic05062102053D

 44 44  0  0  1  0            999 V2000
   -0.0024    3.2391    1.9522 C   0  0
   -2.8394    0.4488    2.2011 C   0  0
   -2.3128   -2.6926    1.1946 C   0  0
    1.5142   -4.4933   -0.3486 C   0  0
    0.2960    1.1926    0.5829 C   0  0  1  0  0  0
   -1.0112    0.3986    0.7048 C   0  0  1  0  0  0
   -0.7985   -1.0797    0.3644 C   0  0  2  0  0  0
   -0.0454   -1.2335   -0.9595 C   0  0  2  0  0  0
    0.9936    0.8864   -0.7463 C   0  0  2  0  0  0
   -3.1876    0.5652    3.6541 C   0  0
   -3.6889   -3.2508    0.9928 C   0  0
    2.3764   -4.8804    0.8145 C   0  0
    0.2929   -2.6897   -1.2646 C   0  0
   -0.2963    4.7168    1.8391 C   0  0
    0.0307    2.6090    0.7196 N   0  0
    0.1845    2.6803    3.0320 O   0  0
   -3.6650    0.3271    1.3063 O   0  0
   -1.5343   -3.0831    2.0541 O   0  0
    1.2199   -5.2490   -1.2648 O   0  0
    1.1882   -0.5162   -0.9068 O   0  0
   -1.4844    0.4996    2.0492 O   0  0
   -2.0784   -1.7016    0.2842 O   0  0
    1.1170   -3.1878   -0.2266 O   0  0
    2.6040    1.6621   -0.8106 Cl  0  0
   -1.7871    5.0511    2.7348 Cl  0  0
    1.0736    5.6036    2.5272 Cl  0  0
    0.9478    0.9230    1.4238 H   0  0
   -1.7873    0.8300    0.0597 H   0  0
   -0.2460   -1.5561    1.1845 H   0  0
   -0.6506   -0.8518   -1.7924 H   0  0
    0.4276    1.2783   -1.5994 H   0  0
   -3.2246   -0.4284    4.1074 H   0  0
   -4.1474    1.0759    3.7658 H   0  0
   -2.4195    1.1531    4.1651 H   0  0
   -4.4073   -2.6950    1.6004 H   0  0
   -3.7011   -4.3116    1.2554 H   0  0
   -3.9704   -3.1499   -0.0594 H   0  0
    3.4244   -4.6734    0.5845 H   0  0
    2.2342   -5.9391    1.0455 H   0  0
    2.0890   -4.2918    1.6907 H   0  0
    0.8271   -2.7566   -2.2124 H   0  0
   -0.6210   -3.2814   -1.3147 H   0  0
   -0.4345    5.0414    0.8047 H   0  0
   -0.1366    3.1586   -0.1159 H   0  0
  1 14  1  0
  1 15  1  0
  1 16  2  0
  2 10  1  0
  2 17  2  0
  2 21  1  0
  3 11  1  0
  3 18  2  0
  3 22  1  0
  4 12  1  0
  4 19  2  0
  4 23  1  0
  5  6  1  0
  5  9  1  0
  5 15  1  0
  6  7  1  0
  6 21  1  0
  7  8  1  0
  7 22  1  0
  8 13  1  0
  8 20  1  0
  9 20  1  0
  9 24  1  0
 13 23  1  0
 14 25  1  0
 14 26  1  0
  5 27  1  0
  6 28  1  0
  7 29  1  0
  8 30  1  0
  9 31  1  0
 10 32  1  0
 10 33  1  0
 10 34  1  0
 11 35  1  0
 11 36  1  0
 11 37  1  0
 12 38  1  0
 12 39  1  0
 12 40  1  0
 13 41  1  0
 13 42  1  0
 14 43  1  0
 15 44  1  0
M  END
> <Name>
BR010324

$$$$
BR010325
  SciTegic05062102053D

 41 42  0  0  1  0            999 V2000
    7.3210   -4.1642    2.5271 C   0  0
    6.0575   -4.1668    3.1180 C   0  0
    7.8097   -3.0017    1.9308 C   0  0
    5.2826   -3.0070    3.1126 C   0  0
    7.0348   -1.8419    1.9254 C   0  0
    5.7713   -1.8445    2.5163 C   0  0
    3.3089    0.5025    1.1824 C   0  0
    1.6326    1.3683   -0.4429 C   0  0  2  0  0  0
    0.2477    1.0609    0.1346 C   0  0  2  0  0  0
   -0.8328    1.9416   -0.4968 C   0  0  1  0  0  0
   -0.7278    1.9143   -2.0238 C   0  0  1  0  0  0
    1.5960    1.4133   -1.9744 C   0  0  1  0  0  0
    4.9381   -0.5966    2.5099 C   0  0
   -1.7127    2.8712   -2.6878 C   0  0
    2.5937    0.3847    0.0115 N   0  0
    3.2329    1.4309    1.9805 O   0  0
    0.5845    2.3138   -2.4232 O   0  0
    0.2770    1.3041    1.5425 O   0  0
   -2.1032    1.4519   -0.0757 O   0  0
    2.8687    1.8615   -2.4389 O   0  0
   -1.5421    2.7917   -4.0912 O   0  0
    4.1281   -0.5814    1.3291 O   0  0
    7.9248   -5.0670    2.5326 H   0  0
    5.6773   -5.0715    3.5833 H   0  0
    8.7938   -2.9989    1.4716 H   0  0
    4.2992   -3.0184    3.5752 H   0  0
    7.4236   -0.9408    1.4584 H   0  0
    1.9910    2.3282   -0.0497 H   0  0
   -0.0001    0.0000    0.0001 H   0  0
   -0.7252    2.9653   -0.1157 H   0  0
   -0.9332    0.9060   -2.4066 H   0  0
    1.4162    0.4154   -2.3950 H   0  0
    4.2873   -0.5554    3.3900 H   0  0
    5.5748    0.2947    2.5203 H   0  0
   -1.5191    3.8923   -2.3588 H   0  0
   -2.7346    2.5902   -2.4327 H   0  0
    2.7485   -0.4353   -0.5639 H   0  0
    0.5068    2.2387    1.6527 H   0  0
   -2.1633    0.5356   -0.3875 H   0  0
    2.8166    1.8801   -3.4066 H   0  0
   -2.1785    3.4084   -4.4915 H   0  0
  1  2  2  0
  1  3  1  0
  2  4  1  0
  3  5  2  0
  4  6  2  0
  5  6  1  0
  6 13  1  0
  7 15  1  0
  7 16  2  0
  7 22  1  0
  8  9  1  0
  8 12  1  0
  8 15  1  0
  9 10  1  0
  9 18  1  0
 10 11  1  0
 10 19  1  0
 11 14  1  0
 11 17  1  0
 12 17  1  0
 12 20  1  0
 13 22  1  0
 14 21  1  0
  1 23  1  0
  2 24  1  0
  3 25  1  0
  4 26  1  0
  5 27  1  0
  8 28  1  0
  9 29  1  0
 10 30  1  0
 11 31  1  0
 12 32  1  0
 13 33  1  0
 13 34  1  0
 14 35  1  0
 14 36  1  0
 15 37  1  0
 18 38  1  0
 19 39  1  0
 20 40  1  0
 21 41  1  0
M  END
> <Name>
BR010325

$$$$
BR010326
  SciTegic05062102053D

 41 42  0  0  1  0            999 V2000
    2.2550    7.0060   -4.8098 C   0  0
    3.4737    6.5847   -4.2778 C   0  0
    1.0689    6.7549   -4.1201 C   0  0
    3.5062    5.9123   -3.0561 C   0  0
    1.1013    6.0825   -2.8984 C   0  0
    2.3200    5.6612   -2.3664 C   0  0
    2.2548    2.7349   -0.1793 C   0  0
    2.1197    0.3130    0.3837 C   0  0  1  0  0  0
    0.6869    0.0414    0.8552 C   0  0  1  0  0  0
    0.6029   -1.2536    1.6675 C   0  0  2  0  0  0
    1.2888   -2.4050    0.9284 C   0  0  2  0  0  0
    2.7422   -0.9387   -0.2473 C   0  0  2  0  0  0
    2.3542    4.9378   -1.0523 C   0  0
    1.3225   -3.6842    1.7592 C   0  0
    2.1368    1.4152   -0.5552 N   0  0
    2.3589    3.1476    0.9711 O   0  0
    2.6418   -2.0588    0.6316 O   0  0
    0.2625    1.1312    1.6759 O   0  0
   -0.7747   -1.5493    1.8819 O   0  0
    4.1188   -0.6672   -0.5101 O   0  0
    1.9602   -4.6965    1.0022 O   0  0
    2.2389    3.5304   -1.2904 O   0  0
    2.2300    7.5307   -5.7604 H   0  0
    4.3975    6.7811   -4.8141 H   0  0
    0.1200    7.0837   -4.5335 H   0  0
    4.4603    5.5876   -2.6493 H   0  0
    0.1722    5.8912   -2.3682 H   0  0
    2.7300    0.6449    1.2332 H   0  0
    0.0004   -0.0002   -0.0003 H   0  0
    1.0664   -1.0883    2.6486 H   0  0
    0.7595   -2.6304   -0.0069 H   0  0
    2.2588   -1.1771   -1.2037 H   0  0
    3.2917    5.1345   -0.5210 H   0  0
    1.5288    5.2622   -0.4095 H   0  0
    0.3067   -3.9990    1.9985 H   0  0
    1.8819   -3.5157    2.6794 H   0  0
    2.0575    1.2039   -1.5435 H   0  0
    0.8793    1.1669    2.4220 H   0  0
   -1.1749   -1.6516    1.0045 H   0  0
    4.4858   -1.4716   -0.9068 H   0  0
    1.9699   -5.4997    1.5503 H   0  0
  1  2  2  0
  1  3  1  0
  2  4  1  0
  3  5  2  0
  4  6  2  0
  5  6  1  0
  6 13  1  0
  7 15  1  0
  7 16  2  0
  7 22  1  0
  8  9  1  0
  8 12  1  0
  8 15  1  0
  9 10  1  0
  9 18  1  0
 10 11  1  0
 10 19  1  0
 11 14  1  0
 11 17  1  0
 12 17  1  0
 12 20  1  0
 13 22  1  0
 14 21  1  0
  1 23  1  0
  2 24  1  0
  3 25  1  0
  4 26  1  0
  5 27  1  0
  8 28  1  0
  9 29  1  0
 10 30  1  0
 11 31  1  0
 12 32  1  0
 13 33  1  0
 13 34  1  0
 14 35  1  0
 14 36  1  0
 15 37  1  0
 18 38  1  0
 19 39  1  0
 20 40  1  0
 21 41  1  0
M  END
> <Name>
BR010326

$$$$
BR010327
  SciTegic05062102053D

 39 40  0  0  1  0            999 V2000
    5.2733   -2.1447    2.2950 C   0  0
    6.3705   -2.5562    1.5384 C   0  0
    4.4826   -1.0825    1.8565 C   0  0
    6.6771   -1.9055    0.3433 C   0  0
    4.7892   -0.4318    0.6614 C   0  0
    5.8864   -0.8432   -0.0952 C   0  0
    3.9265    0.6946    0.2208 C   0  0
    6.2328   -0.1718   -1.3618 C   0  0
    1.6326    1.3683   -0.4429 C   0  0  2  0  0  0
    0.2477    1.0609    0.1346 C   0  0  2  0  0  0
   -0.8328    1.9416   -0.4968 C   0  0  1  0  0  0
   -0.7278    1.9143   -2.0238 C   0  0  1  0  0  0
    1.5960    1.4133   -1.9744 C   0  0  1  0  0  0
   -1.7127    2.8712   -2.6878 C   0  0
    2.5937    0.3847    0.0115 N   0  0
    5.7184   -0.6139   -2.4549 O   0  5
    4.4274    1.8029    0.0500 O   0  0
    7.0371    0.8316   -1.3282 O   0  0
    0.5845    2.3138   -2.4232 O   0  0
    0.2770    1.3041    1.5425 O   0  0
   -2.1032    1.4519   -0.0757 O   0  0
    2.8687    1.8615   -2.4389 O   0  0
   -1.5421    2.7917   -4.0912 O   0  0
    5.0339   -2.6521    3.2248 H   0  0
    6.9855   -3.3837    1.8796 H   0  0
    3.6301   -0.7717    2.4551 H   0  0
    7.5349   -2.2343   -0.2378 H   0  0
    1.9910    2.3282   -0.0497 H   0  0
   -0.0001    0.0000    0.0001 H   0  0
   -0.7252    2.9653   -0.1157 H   0  0
   -0.9332    0.9060   -2.4066 H   0  0
    1.4162    0.4154   -2.3950 H   0  0
   -1.5191    3.8923   -2.3588 H   0  0
   -2.7346    2.5902   -2.4327 H   0  0
    2.2625   -0.5677    0.1121 H   0  0
    0.5068    2.2387    1.6527 H   0  0
   -2.1633    0.5356   -0.3875 H   0  0
    2.8166    1.8801   -3.4066 H   0  0
   -2.1785    3.4084   -4.4915 H   0  0
  1  2  1  0
  1  3  2  0
  2  4  2  0
  3  5  1  0
  4  6  1  0
  5  6  2  0
  5  7  1  0
  6  8  1  0
  7 15  1  0
  7 17  2  0
  8 16  1  0
  8 18  2  0
  9 10  1  0
  9 13  1  0
  9 15  1  0
 10 11  1  0
 10 20  1  0
 11 12  1  0
 11 21  1  0
 12 14  1  0
 12 19  1  0
 13 19  1  0
 13 22  1  0
 14 23  1  0
  1 24  1  0
  2 25  1  0
  3 26  1  0
  4 27  1  0
  9 28  1  0
 10 29  1  0
 11 30  1  0
 12 31  1  0
 13 32  1  0
 14 33  1  0
 14 34  1  0
 15 35  1  0
 20 36  1  0
 21 37  1  0
 22 38  1  0
 23 39  1  0
M  CHG  1  16  -1
M  END
> <Name>
BR010327

$$$$
BR010328
  SciTegic05062102053D

 39 40  0  0  1  0            999 V2000
    3.2098    4.6328   -3.2554 C   0  0
    2.2320    5.6268   -3.2940 C   0  0
    3.2093    3.6936   -2.2240 C   0  0
    1.2538    5.6818   -2.3011 C   0  0
    2.2311    3.7486   -1.2312 C   0  0
    1.2533    4.7427   -1.2697 C   0  0
    2.2567    2.7327   -0.1475 C   0  0
    0.2084    4.8236   -0.2321 C   0  0
    2.1197    0.3130    0.3837 C   0  0  1  0  0  0
    0.6869    0.0414    0.8552 C   0  0  1  0  0  0
    0.6029   -1.2536    1.6675 C   0  0  2  0  0  0
    1.2888   -2.4050    0.9284 C   0  0  2  0  0  0
    2.7422   -0.9387   -0.2473 C   0  0  2  0  0  0
    1.3225   -3.6842    1.7592 C   0  0
    2.1368    1.4152   -0.5552 N   0  0
   -0.8917    4.1817   -0.4132 O   0  5
    2.3588    3.1025    1.0193 O   0  0
    0.4344    5.5333    0.8169 O   0  0
    2.6418   -2.0588    0.6316 O   0  0
    0.2625    1.1312    1.6759 O   0  0
   -0.7747   -1.5493    1.8819 O   0  0
    4.1188   -0.6672   -0.5101 O   0  0
    1.9602   -4.6965    1.0022 O   0  0
    3.9706    4.5893   -4.0291 H   0  0
    2.2321    6.3574   -4.0975 H   0  0
    3.9765    2.9237   -2.2056 H   0  0
    0.4972    6.4612   -2.3409 H   0  0
    2.7300    0.6449    1.2332 H   0  0
    0.0004   -0.0002   -0.0003 H   0  0
    1.0664   -1.0883    2.6486 H   0  0
    0.7595   -2.6304   -0.0069 H   0  0
    2.2588   -1.1771   -1.2037 H   0  0
    0.3067   -3.9990    1.9985 H   0  0
    1.8819   -3.5157    2.6794 H   0  0
    1.9927    1.1879   -1.5323 H   0  0
    0.8793    1.1669    2.4220 H   0  0
   -1.1749   -1.6516    1.0045 H   0  0
    4.4858   -1.4716   -0.9068 H   0  0
    1.9699   -5.4997    1.5503 H   0  0
  1  2  1  0
  1  3  2  0
  2  4  2  0
  3  5  1  0
  4  6  1  0
  5  6  2  0
  5  7  1  0
  6  8  1  0
  7 15  1  0
  7 17  2  0
  8 16  1  0
  8 18  2  0
  9 10  1  0
  9 13  1  0
  9 15  1  0
 10 11  1  0
 10 20  1  0
 11 12  1  0
 11 21  1  0
 12 14  1  0
 12 19  1  0
 13 19  1  0
 13 22  1  0
 14 23  1  0
  1 24  1  0
  2 25  1  0
  3 26  1  0
  4 27  1  0
  9 28  1  0
 10 29  1  0
 11 30  1  0
 12 31  1  0
 13 32  1  0
 14 33  1  0
 14 34  1  0
 15 35  1  0
 20 36  1  0
 21 37  1  0
 22 38  1  0
 23 39  1  0
M  CHG  1  16  -1
M  END
> <Name>
BR010328

$$$$
BR010329
  SciTegic05062102053D

 57 59  0  0  1  0            999 V2000
    2.5650    5.2325   -3.0523 C   0  0
    1.7469    4.4904   -3.9286 C   0  0
    2.9765    4.6984   -1.8279 C   0  0
    1.3246    3.1996   -3.5978 C   0  0
    2.5478    3.4231   -1.5225 C   0  0
    1.7432    2.6927   -2.3848 C   0  0
    2.8033    2.6040   -0.3384 C   0  0
    1.4727    1.3961   -1.7641 C   0  0
   -0.8192    1.7898    1.2464 C   0  0
   -1.1331   -1.5920    3.2024 C   0  0
    4.7307   -1.4561   -1.4554 C   0  0
    2.2461   -4.4919    3.8035 C   0  0
    2.1347    0.3112    0.3817 C   0  0  1  0  0  0
    0.7073    0.0274    0.8623 C   0  0  1  0  0  0
    0.6390   -1.2696    1.6729 C   0  0  2  0  0  0
    1.3290   -2.4142    0.9271 C   0  0  2  0  0  0
    2.7629   -0.9344   -0.2557 C   0  0  2  0  0  0
   -1.1498    2.8925    2.2060 C   0  0
   -2.5917   -1.9265    3.2834 C   0  0
    6.1603   -1.0448   -1.6370 C   0  0
    3.0356   -4.0740    5.0068 C   0  0
    1.3783   -3.6946    1.7553 C   0  0
    2.1368    1.4152   -0.5552 N   0  0
    3.4775    2.9634    0.6089 O   0  0
    0.7899    0.5272   -2.2739 O   0  0
   -1.4554    1.5539    0.2282 O   0  0
   -0.4261   -1.3695    4.1759 O   0  0
    4.2007   -2.3780   -2.0608 O   0  0
    1.7992   -5.6184    3.6346 O   0  0
    2.6772   -2.0568    0.6218 O   0  0
    0.2798    1.1124    1.6879 O   0  0
   -0.7348   -1.5766    1.8959 O   0  0
    4.1354   -0.6515   -0.5272 O   0  0
    2.1074   -3.4363    2.9412 O   0  0
    2.8787    6.2340   -3.3353 H   0  0
    1.4414    4.9305   -4.8743 H   0  0
    3.6049    5.2693   -1.1544 H   0  0
    0.6958    2.6297   -4.2715 H   0  0
    2.7481    0.6464    1.2278 H   0  0
    0.0154   -0.0180    0.0114 H   0  0
    1.1078   -1.1024    2.6511 H   0  0
    0.7952   -2.6421   -0.0051 H   0  0
    2.2749   -1.1749   -1.2092 H   0  0
   -1.8381    2.5246    2.9709 H   0  0
   -1.5886    3.7352    1.6657 H   0  0
   -0.2334    3.2333    2.6964 H   0  0
   -3.1852   -1.0098    3.2439 H   0  0
   -2.7952   -2.4781    4.2047 H   0  0
   -2.8669   -2.5569    2.4328 H   0  0
    6.2324   -0.2923   -2.4261 H   0  0
    6.7696   -1.9187   -1.8808 H   0  0
    6.5337   -0.6098   -0.7053 H   0  0
    4.1003   -4.2442    4.8292 H   0  0
    2.6972   -4.6309    5.8842 H   0  0
    2.8790   -3.0071    5.1907 H   0  0
    1.8757   -4.4835    1.1911 H   0  0
    0.3675   -4.0091    2.0148 H   0  0
  1  2  1  0
  1  3  2  0
  2  4  2  0
  3  5  1  0
  4  6  1  0
  5  6  2  0
  5  7  1  0
  6  8  1  0
  7 23  1  0
  7 24  2  0
  8 23  1  0
  8 25  2  0
  9 18  1  0
  9 26  2  0
  9 31  1  0
 10 19  1  0
 10 27  2  0
 10 32  1  0
 11 20  1  0
 11 28  2  0
 11 33  1  0
 12 21  1  0
 12 29  2  0
 12 34  1  0
 13 14  1  0
 13 17  1  0
 13 23  1  0
 14 15  1  0
 14 31  1  0
 15 16  1  0
 15 32  1  0
 16 22  1  0
 16 30  1  0
 17 30  1  0
 17 33  1  0
 22 34  1  0
  1 35  1  0
  2 36  1  0
  3 37  1  0
  4 38  1  0
 13 39  1  0
 14 40  1  0
 15 41  1  0
 16 42  1  0
 17 43  1  0
 18 44  1  0
 18 45  1  0
 18 46  1  0
 19 47  1  0
 19 48  1  0
 19 49  1  0
 20 50  1  0
 20 51  1  0
 20 52  1  0
 21 53  1  0
 21 54  1  0
 21 55  1  0
 22 56  1  0
 22 57  1  0
M  END
> <Name>
BR010329

$$$$
BR010330
  SciTegic05062102053D

 30 30  0  0  1  0            999 V2000
    3.2975    0.5319    1.1944 C   0  0
    1.6326    1.3683   -0.4429 C   0  0  2  0  0  0
    0.2477    1.0609    0.1346 C   0  0  2  0  0  0
   -0.8328    1.9416   -0.4968 C   0  0  1  0  0  0
   -0.7278    1.9143   -2.0238 C   0  0  1  0  0  0
    1.5960    1.4133   -1.9744 C   0  0  1  0  0  0
   -1.7127    2.8712   -2.6878 C   0  0
    4.2381   -0.6214    1.4548 C   0  0
    2.5937    0.3847    0.0115 N   0  0
    3.1865    1.4847    1.9645 O   0  0
    0.5845    2.3138   -2.4232 O   0  0
    0.2770    1.3041    1.5425 O   0  0
   -2.1032    1.4519   -0.0757 O   0  0
    2.8687    1.8615   -2.4389 O   0  0
   -1.5421    2.7917   -4.0912 O   0  0
    5.8854    0.0225    1.5473 Cl  0  0
    3.7643   -1.3826    2.9820 Cl  0  0
    1.9910    2.3282   -0.0497 H   0  0
   -0.0001    0.0000    0.0001 H   0  0
   -0.7252    2.9653   -0.1157 H   0  0
   -0.9332    0.9060   -2.4066 H   0  0
    1.4162    0.4154   -2.3950 H   0  0
   -1.5191    3.8923   -2.3588 H   0  0
   -2.7346    2.5902   -2.4327 H   0  0
    4.2064   -1.3776    0.6665 H   0  0
    2.7566   -0.4393   -0.5558 H   0  0
    0.5068    2.2387    1.6527 H   0  0
   -2.1633    0.5356   -0.3875 H   0  0
    2.8166    1.8801   -3.4066 H   0  0
   -2.1785    3.4084   -4.4915 H   0  0
  1  8  1  0
  1  9  1  0
  1 10  2  0
  2  3  1  0
  2  6  1  0
  2  9  1  0
  3  4  1  0
  3 12  1  0
  4  5  1  0
  4 13  1  0
  5  7  1  0
  5 11  1  0
  6 11  1  0
  6 14  1  0
  7 15  1  0
  8 16  1  0
  8 17  1  0
  2 18  1  0
  3 19  1  0
  4 20  1  0
  5 21  1  0
  6 22  1  0
  7 23  1  0
  7 24  1  0
  8 25  1  0
  9 26  1  0
 12 27  1  0
 13 28  1  0
 14 29  1  0
 15 30  1  0
M  END
> <Name>
BR010330

$$$$
BR010331
  SciTegic05062102053D

 30 30  0  0  1  0            999 V2000
    2.2568    2.7322   -0.1458 C   0  0
    2.1197    0.3130    0.3837 C   0  0  1  0  0  0
    0.6869    0.0414    0.8552 C   0  0  1  0  0  0
    0.6029   -1.2536    1.6675 C   0  0  2  0  0  0
    1.2888   -2.4050    0.9284 C   0  0  2  0  0  0
    2.7422   -0.9387   -0.2473 C   0  0  2  0  0  0
    1.3225   -3.6842    1.7592 C   0  0
    2.2513    3.7010   -1.3050 C   0  0
    2.1368    1.4152   -0.5552 N   0  0
    2.3588    3.0979    1.0243 O   0  0
    2.6418   -2.0588    0.6316 O   0  0
    0.2625    1.1312    1.6759 O   0  0
   -0.7747   -1.5493    1.8819 O   0  0
    4.1188   -0.6672   -0.5101 O   0  0
    1.9602   -4.6965    1.0022 O   0  0
    0.8760    4.7977   -1.0989 Cl  0  0
    3.7834    4.5891   -1.2860 Cl  0  0
    2.7300    0.6449    1.2332 H   0  0
    0.0004   -0.0002   -0.0003 H   0  0
    1.0664   -1.0883    2.6486 H   0  0
    0.7595   -2.6304   -0.0069 H   0  0
    2.2588   -1.1771   -1.2037 H   0  0
    0.3067   -3.9990    1.9985 H   0  0
    1.8819   -3.5157    2.6794 H   0  0
    2.1528    3.2012   -2.2719 H   0  0
    2.0582    1.2157   -1.5460 H   0  0
    0.8793    1.1669    2.4220 H   0  0
   -1.1749   -1.6516    1.0045 H   0  0
    4.4858   -1.4716   -0.9068 H   0  0
    1.9699   -5.4997    1.5503 H   0  0
  1  8  1  0
  1  9  1  0
  1 10  2  0
  2  3  1  0
  2  6  1  0
  2  9  1  0
  3  4  1  0
  3 12  1  0
  4  5  1  0
  4 13  1  0
  5  7  1  0
  5 11  1  0
  6 11  1  0
  6 14  1  0
  7 15  1  0
  8 16  1  0
  8 17  1  0
  2 18  1  0
  3 19  1  0
  4 20  1  0
  5 21  1  0
  6 22  1  0
  7 23  1  0
  7 24  1  0
  8 25  1  0
  9 26  1  0
 12 27  1  0
 13 28  1  0
 14 29  1  0
 15 30  1  0
M  END
> <Name>
BR010331

$$$$
BR010332
  SciTegic05062102053D

 43 43  0  0  1  0            999 V2000
   -0.3036    2.6760    1.2671 C   0  0
    2.3295   -0.1643   -0.7499 C   0  0
    3.7116   -1.5343    5.1907 C   0  0
   -3.5161   -2.5898    2.3210 C   0  0
    0.8416    0.6996    1.9051 C   0  0  2  0  0  0
    0.5899   -0.3562    0.8504 C   0  0  2  0  0  0
    0.9928   -0.1024    3.1922 C   0  0  2  0  0  0
   -0.0932   -1.4813    1.6199 C   0  0  2  0  0  0
   -1.5656    3.4513    1.4959 C   0  0
    3.6495   -0.7475   -1.1542 C   0  0
    3.5895   -2.2974    6.4747 C   0  0
   -3.9371   -3.7820    3.1256 C   0  0
    2.4408   -0.4290    3.5332 C   0  0
   -1.6134   -1.4178    1.5527 C   0  0
    0.5882    3.0275    0.5068 O   0  0
    1.7799    0.7586   -1.3358 O   0  0
    4.7753   -1.2897    4.6375 O   0  0
   -4.2964   -1.8166    1.7821 O   0  0
    0.2939   -1.3446    2.9987 O   0  0
   -0.3060    1.5354    2.0270 O   0  0
    1.8457   -0.8131    0.3561 O   0  0
    2.4711   -1.1628    4.7464 O   0  0
   -2.1500   -2.5068    2.2859 O   0  0
    1.6966    1.3188    1.6738 H   0  0
    0.0110    0.0254    0.0212 H   0  0
    0.5375    0.4109    4.0405 H   0  0
    0.2351   -2.4614    1.2732 H   0  0
   -2.3312    3.1320    0.7845 H   0  0
   -1.3672    4.5212    1.3944 H   0  0
   -1.9300    3.2600    2.5095 H   0  0
    4.4599   -0.2182   -0.6469 H   0  0
    3.7667   -0.6834   -2.2389 H   0  0
    3.6850   -1.8012   -0.8624 H   0  0
    3.6324   -1.6080    7.3215 H   0  0
    4.3881   -3.0406    6.5419 H   0  0
    2.6276   -2.8178    6.4972 H   0  0
   -4.0276   -4.6554    2.4751 H   0  0
   -4.8859   -3.5748    3.6270 H   0  0
   -3.1801   -3.9913    3.8870 H   0  0
    3.0172    0.4905    3.6593 H   0  0
    2.8902   -1.0324    2.7412 H   0  0
   -1.9504   -1.4870    0.5158 H   0  0
   -1.9738   -0.4833    1.9890 H   0  0
  1  9  1  0
  1 15  2  0
  1 20  1  0
  2 10  1  0
  2 16  2  0
  2 21  1  0
  3 11  1  0
  3 17  2  0
  3 22  1  0
  4 12  1  0
  4 18  2  0
  4 23  1  0
  5  6  1  0
  5  7  1  0
  5 20  1  0
  6  8  1  0
  6 21  1  0
  7 13  1  0
  7 19  1  0
  8 14  1  0
  8 19  1  0
 13 22  1  0
 14 23  1  0
  5 24  1  0
  6 25  1  0
  7 26  1  0
  8 27  1  0
  9 28  1  0
  9 29  1  0
  9 30  1  0
 10 31  1  0
 10 32  1  0
 10 33  1  0
 11 34  1  0
 11 35  1  0
 11 36  1  0
 12 37  1  0
 12 38  1  0
 12 39  1  0
 13 40  1  0
 13 41  1  0
 14 42  1  0
 14 43  1  0
M  END
> <Name>
BR010332

$$$$
BR010333
  SciTegic05062102053D

 51 53  0  0  1  0            999 V2000
   -0.4224    7.0787    1.5870 C   0  0
   -1.2149    7.0112    0.4229 C   0  0
    0.2077    5.9389    2.0946 C   0  0
   -1.3927    5.8026   -0.2565 C   0  0
    0.0183    4.7575    1.4077 C   0  0
   -0.7611    4.6910    0.2622 C   0  0
    0.5342    3.4172    1.6831 C   0  0
   -0.7548    3.3070   -0.2113 C   0  0
   -2.6823    1.0856    2.2103 C   0  0
   -2.2914   -2.6880    1.2335 C   0  0
    1.4958   -4.5147   -0.3562 C   0  0
    0.3142    1.1944    0.5724 C   0  0  1  0  0  0
   -0.9909    0.3986    0.7100 C   0  0  1  0  0  0
   -0.7837   -1.0820    0.3783 C   0  0  2  0  0  0
   -0.0441   -1.2428   -0.9517 C   0  0  2  0  0  0
    1.0146    0.8664   -0.7475 C   0  0  2  0  0  0
   -3.0362    1.1356    3.6657 C   0  0
   -3.6700   -3.2460    1.0486 C   0  0
    2.3656   -4.9089    0.7989 C   0  0
    0.2802   -2.7012   -1.2602 C   0  0
    0.0365    2.6120    0.6792 N   0  0
    1.2526    3.1416    2.6260 O   0  0
   -1.3520    2.9236   -1.2000 O   0  0
   -3.4037    1.5040    1.3150 O   0  0
   -1.5050   -3.0738    2.0878 O   0  0
    1.1872   -5.2677   -1.2699 O   0  0
    1.1951   -0.5362   -0.9069 O   0  0
   -1.4546    0.5105    2.0571 O   0  0
   -2.0648   -1.7030    0.3146 O   0  0
    1.1099   -3.2062   -0.2300 O   0  0
    2.7927    1.6956   -0.7853 Br  0  0
   -0.3013    8.0320    2.0952 H   0  0
   -1.6938    7.9131    0.0505 H   0  0
    0.8164    5.9912    2.9897 H   0  0
   -2.0020    5.7511   -1.1511 H   0  0
    0.9651    0.9510    1.4221 H   0  0
   -1.7724    0.8250    0.0677 H   0  0
   -0.2234   -1.5535    1.1959 H   0  0
   -0.6523   -0.8554   -1.7797 H   0  0
    0.4878    1.2791   -1.6158 H   0  0
   -3.5661    0.2231    3.9501 H   0  0
   -3.6501    2.0168    3.8682 H   0  0
   -2.1202    1.2062    4.2595 H   0  0
   -4.3819   -2.6856    1.6596 H   0  0
   -3.6807   -4.3051    1.3180 H   0  0
   -3.9617   -3.1515   -0.0015 H   0  0
    3.4130   -4.7100    0.5592 H   0  0
    2.2173   -5.9667    1.0307 H   0  0
    2.0908   -4.3186    1.6778 H   0  0
    0.8051   -2.7722   -2.2129 H   0  0
   -0.6387   -3.2861   -1.3021 H   0  0
  1  2  1  0
  1  3  2  0
  2  4  2  0
  3  5  1  0
  4  6  1  0
  5  6  2  0
  5  7  1  0
  6  8  1  0
  7 21  1  0
  7 22  2  0
  8 21  1  0
  8 23  2  0
  9 17  1  0
  9 24  2  0
  9 28  1  0
 10 18  1  0
 10 25  2  0
 10 29  1  0
 11 19  1  0
 11 26  2  0
 11 30  1  0
 12 13  1  0
 12 16  1  0
 12 21  1  0
 13 14  1  0
 13 28  1  0
 14 15  1  0
 14 29  1  0
 15 20  1  0
 15 27  1  0
 16 27  1  0
 16 31  1  0
 20 30  1  0
  1 32  1  0
  2 33  1  0
  3 34  1  0
  4 35  1  0
 12 36  1  0
 13 37  1  0
 14 38  1  0
 15 39  1  0
 16 40  1  0
 17 41  1  0
 17 42  1  0
 17 43  1  0
 18 44  1  0
 18 45  1  0
 18 46  1  0
 19 47  1  0
 19 48  1  0
 19 49  1  0
 20 50  1  0
 20 51  1  0
M  END
> <Name>
BR010333

$$$$
BR010334
  SciTegic05062102053D

 68 71  0  0  1  0            999 V2000
   -4.1705    3.7858    4.5412 C   0  0
   -5.0508    2.6882    4.6311 C   0  0
   -2.8180    3.6509    4.8678 C   0  0
   -4.5960    1.4343    5.0490 C   0  0
   -2.3916    2.4044    5.2775 C   0  0
   -3.2576    1.3244    5.3657 C   0  0
   -1.0609    1.9523    5.6817 C   0  0
   -2.4929    0.1661    5.8275 C   0  0
   -1.4553    0.5929    9.4624 C   0  0
    1.0103   -2.2550   10.5445 C   0  0
    4.1956   -3.9893    7.8919 C   0  0
   -0.2304    0.3067    0.8873 C   0  0
   -1.2576    0.1981    2.0106 C   0  0
    1.1635   -0.0999    1.3566 C   0  0
   -1.2629   -1.1973    2.6353 C   0  0
    1.1629   -1.4950    1.9828 C   0  0
   -0.1059   -0.2258    6.4344 C   0  0  1  0  0  0
    0.1296   -1.6246    3.1019 C   0  0
   -0.3864   -0.7573    7.8443 C   0  0  1  0  0  0
    0.6341   -1.8232    8.2520 C   0  0  2  0  0  0
    0.7791   -2.8842    7.1584 C   0  0  2  0  0  0
    0.1245   -1.3745    5.4446 C   0  0  2  0  0  0
   -1.2296    1.7526   10.3844 C   0  0
    0.4152   -2.9281   11.7440 C   0  0
    5.4229   -3.1344    7.9852 C   0  0
    1.8700   -3.9004    7.4825 C   0  0
   -1.1985    0.6142    5.9900 N   0  0
   -0.0769    2.6675    5.7151 O   0  0
   -2.9728   -0.9376    6.0084 O   0  0
   -2.5151   -0.0114    9.3682 O   0  0
    2.0765   -1.6547   10.5543 O   0  0
    4.1911   -5.2019    8.0554 O   0  0
    1.1322   -2.2660    5.9208 O   0  0
   -0.3114    0.3320    8.7658 O   0  0
    0.1864   -2.4181    9.4673 O   0  0
    3.1034   -3.2152    7.6004 O   0  0
    0.5411   -0.8130    4.2001 O   0  0
   -4.5513    4.7495    4.2131 H   0  0
   -6.0978    2.8216    4.3715 H   0  0
   -2.1418    4.4949    4.7990 H   0  0
   -5.2730    0.5911    5.1181 H   0  0
   -0.5357   -0.3250    0.0457 H   0  0
   -0.2033    1.3392    0.5177 H   0  0
   -1.0434    0.9457    2.7823 H   0  0
   -2.2559    0.4219    1.6156 H   0  0
    1.8548   -0.0854    0.5052 H   0  0
    1.5362    0.6289    2.0847 H   0  0
   -1.9613   -1.2206    3.4846 H   0  0
   -1.6540   -1.9296    1.9159 H   0  0
    0.9712   -2.2515    1.2093 H   0  0
    2.1640   -1.7264    2.3756 H   0  0
    0.7743    0.4293    6.4565 H   0  0
    0.0974   -2.6636    3.4534 H   0  0
   -1.4053   -1.1606    7.9091 H   0  0
    1.5965   -1.3354    8.4527 H   0  0
   -0.1617   -3.4361    7.0317 H   0  0
   -0.8050   -1.9310    5.2672 H   0  0
   -0.8706    1.3928   11.3518 H   0  0
   -2.1573    2.3179   10.5034 H   0  0
   -0.4717    2.4147    9.9556 H   0  0
   -0.2236   -2.2255   12.2847 H   0  0
    1.2114   -3.3027   12.3923 H   0  0
   -0.1956   -3.7752   11.4186 H   0  0
    5.8978   -3.0589    7.0039 H   0  0
    6.1154   -3.5581    8.7170 H   0  0
    5.1411   -2.1299    8.3143 H   0  0
    1.9419   -4.6368    6.6821 H   0  0
    1.6443   -4.4011    8.4240 H   0  0
  1  2  1  0
  1  3  2  0
  2  4  2  0
  3  5  1  0
  4  6  1  0
  5  6  2  0
  5  7  1  0
  6  8  1  0
  7 27  1  0
  7 28  2  0
  8 27  1  0
  8 29  2  0
  9 23  1  0
  9 30  2  0
  9 34  1  0
 10 24  1  0
 10 31  2  0
 10 35  1  0
 11 25  1  0
 11 32  2  0
 11 36  1  0
 12 13  1  0
 12 14  1  0
 13 15  1  0
 14 16  1  0
 15 18  1  0
 16 18  1  0
 17 19  1  0
 17 22  1  0
 17 27  1  0
 18 37  1  0
 19 20  1  0
 19 34  1  0
 20 21  1  0
 20 35  1  0
 21 26  1  0
 21 33  1  0
 22 33  1  0
 22 37  1  0
 26 36  1  0
  1 38  1  0
  2 39  1  0
  3 40  1  0
  4 41  1  0
 12 42  1  0
 12 43  1  0
 13 44  1  0
 13 45  1  0
 14 46  1  0
 14 47  1  0
 15 48  1  0
 15 49  1  0
 16 50  1  0
 16 51  1  0
 17 52  1  0
 18 53  1  0
 19 54  1  0
 20 55  1  0
 21 56  1  0
 22 57  1  0
 23 58  1  0
 23 59  1  0
 23 60  1  0
 24 61  1  0
 24 62  1  0
 24 63  1  0
 25 64  1  0
 25 65  1  0
 25 66  1  0
 26 67  1  0
 26 68  1  0
M  END
> <Name>
BR010334

$$$$
BR010335
  SciTegic05062102053D

 80 81  0  0  1  0            999 V2000
    2.2941   -5.1025    2.3527 C   0  0
    1.3189   -5.4769    1.4284 C   0  0
    2.3770   -3.7777    2.7812 C   0  0
    0.4265   -4.5264    0.9325 C   0  0
    1.4846   -2.8272    2.2853 C   0  0
    0.5094   -3.2015    1.3610 C   0  0
    0.3355    0.5588   -1.2214 C   0  0  1  0  0  0
   -0.4249    1.3637   -0.1785 C   0  0  1  0  0  0
    1.0917   -0.4727   -0.3826 C   0  0  2  0  0  0
   -0.9545    0.2896    0.7752 C   0  0  2  0  0  0
    3.4364   -0.6058   -5.3450 C   0  0
    5.3881   -0.7601   -3.7714 C   0  0
    4.9218   -2.6307   -5.3812 C   0  0
   -4.0203   -2.2228    4.5731 C   0  0
   -1.6746   -2.8782    5.1870 C   0  0
   -3.0763   -1.5653    6.8056 C   0  0
    1.8360   -3.3603   -4.1036 C   0  0
    4.2103   -3.6259   -2.2141 C   0  0
   -3.4445    1.1426    4.7519 C   0  0
   -0.6033    0.3988    5.5594 C   0  0
   -0.4500   -2.1786    0.8278 C   0  0
    1.5864   -1.6917   -1.1437 C   0  0
   -1.2205    0.7420    2.2018 C   0  0
    4.2707   -1.5671   -4.4696 C   0  0
   -2.7418   -1.7678    5.3111 C   0  0
    0.1349   -0.7957    0.7718 N   0  3
   -0.5676   -0.0774   -2.1151 O   0  0
    0.4690    2.2619    0.4647 O   0  0
    2.4624   -1.2630   -2.1728 O   0  0
   -1.7128   -0.3600    2.9453 O   0  0
    3.1716   -2.3967   -3.1882 Si  0  0
   -2.0994   -0.1639    4.5676 Si  0  0
    2.9880   -5.8430    2.7397 H   0  0
    1.2535   -6.5086    1.0955 H   0  0
    3.1354   -3.4861    3.5017 H   0  0
   -0.3300   -4.8271    0.2124 H   0  0
    1.5567   -1.7973    2.6248 H   0  0
    1.0296    1.1761   -1.8012 H   0  0
   -1.2458    1.9402   -0.6182 H   0  0
    1.9471    0.0140    0.0973 H   0  0
   -1.8536   -0.1676    0.3430 H   0  0
    2.6271   -1.1335   -5.8636 H   0  0
    2.9785    0.1822   -4.7360 H   0  0
    4.0546   -0.1164   -6.1072 H   0  0
    6.0106   -1.4009   -3.1355 H   0  0
    4.9753    0.0341   -3.1381 H   0  0
    6.0476   -0.2853   -4.5072 H   0  0
    5.5271   -3.3396   -4.8038 H   0  0
    4.1596   -3.2082   -5.9172 H   0  0
    5.5755   -2.1714   -6.1320 H   0  0
   -4.8109   -1.4652    4.6327 H   0  0
   -3.8172   -2.4037    3.5111 H   0  0
   -4.4198   -3.1526    4.9956 H   0  0
   -0.7442   -2.6015    5.6971 H   0  0
   -1.4286   -3.0847    4.1386 H   0  0
   -2.0291   -3.8149    5.6328 H   0  0
   -2.1969   -1.2407    7.3745 H   0  0
   -3.8524   -0.8020    6.9343 H   0  0
   -3.4448   -2.4904    7.2644 H   0  0
    1.1981   -2.6924   -4.6904 H   0  0
    2.2753   -4.0896   -4.7912 H   0  0
    1.1934   -3.9061   -3.4060 H   0  0
    5.0062   -3.1194   -1.6596 H   0  0
    3.5991   -4.1752   -1.4915 H   0  0
    4.6810   -4.3587   -2.8767 H   0  0
   -4.3436    0.8664    4.1926 H   0  0
   -3.7310    1.2703    5.8002 H   0  0
   -3.1061    2.1142    4.3788 H   0  0
    0.2138   -0.3257    5.4884 H   0  0
   -0.2273    1.3605    5.1970 H   0  0
   -0.8522    0.5167    6.6184 H   0  0
   -0.7682   -2.4270   -0.1904 H   0  0
   -1.3479   -2.1153    1.4519 H   0  0
    0.7450   -2.2250   -1.5911 H   0  0
    2.1264   -2.3631   -0.4727 H   0  0
   -1.9653    1.5404    2.2118 H   0  0
   -0.2977    1.0998    2.6627 H   0  0
    0.6876   -0.6915    1.6328 H   0  0
   -1.0822    0.6266   -2.5422 H   0  0
    0.8285    2.8422   -0.2259 H   0  0
  1  2  1  0
  1  3  2  0
  2  4  2  0
  3  5  1  0
  4  6  1  0
  5  6  2  0
  6 21  1  0
  7  8  1  0
  7  9  1  0
  7 27  1  0
  8 10  1  0
  8 28  1  0
  9 22  1  0
  9 26  1  0
 10 23  1  0
 10 26  1  0
 11 24  1  0
 12 24  1  0
 13 24  1  0
 14 25  1  0
 15 25  1  0
 16 25  1  0
 17 31  1  0
 18 31  1  0
 19 32  1  0
 20 32  1  0
 21 26  1  0
 22 29  1  0
 23 30  1  0
 24 31  1  0
 25 32  1  0
 29 31  1  0
 30 32  1  0
  1 33  1  0
  2 34  1  0
  3 35  1  0
  4 36  1  0
  5 37  1  0
  7 38  1  0
  8 39  1  0
  9 40  1  0
 10 41  1  0
 11 42  1  0
 11 43  1  0
 11 44  1  0
 12 45  1  0
 12 46  1  0
 12 47  1  0
 13 48  1  0
 13 49  1  0
 13 50  1  0
 14 51  1  0
 14 52  1  0
 14 53  1  0
 15 54  1  0
 15 55  1  0
 15 56  1  0
 16 57  1  0
 16 58  1  0
 16 59  1  0
 17 60  1  0
 17 61  1  0
 17 62  1  0
 18 63  1  0
 18 64  1  0
 18 65  1  0
 19 66  1  0
 19 67  1  0
 19 68  1  0
 20 69  1  0
 20 70  1  0
 20 71  1  0
 21 72  1  0
 21 73  1  0
 22 74  1  0
 22 75  1  0
 23 76  1  0
 23 77  1  0
 26 78  1  0
 27 79  1  0
 28 80  1  0
M  CHG  1  26   1
M  END
> <Name>
BR010335

$$$$
BR010336
  SciTegic05062102053D

 59 60  0  0  1  0            999 V2000
   -2.8607   -2.6842    4.3911 C   0  0
   -1.4999   -2.9888    4.4233 C   0  0
   -3.4415   -2.2089    3.2153 C   0  0
   -0.7198   -2.8178    3.2797 C   0  0
   -2.6614   -2.0380    2.0717 C   0  0
   -1.3005   -2.3424    2.1039 C   0  0
    0.2992    0.5360   -1.2408 C   0  0  1  0  0  0
   -0.4038    1.3699   -0.1806 C   0  0  1  0  0  0
    1.0662   -0.4999   -0.4177 C   0  0  2  0  0  0
   -0.9179    0.3194    0.8072 C   0  0  2  0  0  0
    2.9245    1.1294    4.6432 C   0  0
    2.4651    3.4420    3.7774 C   0  0
    2.0316    2.8951    6.1900 C   0  0
   -0.3152    0.4973    5.5345 C   0  0
   -0.9125    3.3183    4.5529 C   0  0
   -0.4619   -2.1581    0.8735 C   0  0
    1.5070   -1.7385   -1.1804 C   0  0
   -1.1189    0.7954    2.2368 C   0  0
    1.9757    2.3440    4.7480 C   0  0
    0.1483   -0.7884    0.7767 N   0  3
   -0.6505   -0.0929   -2.0903 O   0  0
    0.5324    2.2572    0.4156 O   0  0
    2.3513   -1.3410   -2.2478 O   0  0
    0.1252    1.2440    2.7472 O   0  0
    0.2176    1.8330    4.3170 Si  0  0
   -3.4683   -2.8186    5.2813 H   0  0
   -1.0478   -3.3599    5.3384 H   0  0
   -4.5012   -1.9727    3.1896 H   0  0
    0.3397   -3.0575    3.3141 H   0  0
   -3.1224   -1.6669    1.1602 H   0  0
    0.9827    1.1312   -1.8554 H   0  0
   -1.2289    1.9576   -0.5965 H   0  0
    1.9492   -0.0249    0.0230 H   0  0
   -1.8422   -0.1243    0.4162 H   0  0
    2.6178    0.3197    5.3161 H   0  0
    2.9335    0.7250    3.6243 H   0  0
    3.9557    1.4006    4.8996 H   0  0
    1.8215    4.3290    3.8150 H   0  0
    2.4779    3.0860    2.7404 H   0  0
    3.4831    3.7624    4.0282 H   0  0
    1.3720    3.7620    6.3154 H   0  0
    1.7170    2.1341    6.9137 H   0  0
    3.0464    3.2086    6.4619 H   0  0
    0.3110   -0.3953    5.4415 H   0  0
   -0.2395    0.8506    6.5674 H   0  0
   -1.3527    0.1953    5.3614 H   0  0
   -0.6479    4.1296    3.8679 H   0  0
   -1.9579    3.0536    4.3669 H   0  0
   -0.8448    3.7089    5.5729 H   0  0
    0.3666   -2.8741    0.8482 H   0  0
   -1.0559   -2.3029   -0.0353 H   0  0
    0.6386   -2.2602   -1.5882 H   0  0
    2.0588   -2.4120   -0.5213 H   0  0
   -1.4855   -0.0234    2.8591 H   0  0
   -1.8338    1.6203    2.2630 H   0  0
    0.7372   -0.6817    1.6145 H   0  0
   -1.1671    0.6159   -2.5070 H   0  0
    0.8769    2.8210   -0.2959 H   0  0
    2.6166   -2.1503   -2.7160 H   0  0
  1  2  1  0
  1  3  2  0
  2  4  2  0
  3  5  1  0
  4  6  1  0
  5  6  2  0
  6 16  1  0
  7  8  1  0
  7  9  1  0
  7 21  1  0
  8 10  1  0
  8 22  1  0
  9 17  1  0
  9 20  1  0
 10 18  1  0
 10 20  1  0
 11 19  1  0
 12 19  1  0
 13 19  1  0
 14 25  1  0
 15 25  1  0
 16 20  1  0
 17 23  1  0
 18 24  1  0
 19 25  1  0
 24 25  1  0
  1 26  1  0
  2 27  1  0
  3 28  1  0
  4 29  1  0
  5 30  1  0
  7 31  1  0
  8 32  1  0
  9 33  1  0
 10 34  1  0
 11 35  1  0
 11 36  1  0
 11 37  1  0
 12 38  1  0
 12 39  1  0
 12 40  1  0
 13 41  1  0
 13 42  1  0
 13 43  1  0
 14 44  1  0
 14 45  1  0
 14 46  1  0
 15 47  1  0
 15 48  1  0
 15 49  1  0
 16 50  1  0
 16 51  1  0
 17 52  1  0
 17 53  1  0
 18 54  1  0
 18 55  1  0
 20 56  1  0
 21 57  1  0
 22 58  1  0
 23 59  1  0
M  CHG  1  20   1
M  END
> <Name>
BR010336

$$$$
BR010337
  SciTegic05062102053D

 65 65  0  0  1  0            999 V2000
    0.8416    0.6996    1.9051 C   0  0  2  0  0  0
    0.5899   -0.3562    0.8504 C   0  0  2  0  0  0
    0.9928   -0.1024    3.1922 C   0  0  2  0  0  0
   -0.0932   -1.4813    1.6199 C   0  0  2  0  0  0
    3.0290   -1.6896    8.0410 C   0  0
    2.8141   -3.8421    6.7645 C   0  0
    5.0712   -3.0649    7.5453 C   0  0
   -3.6783   -5.4906    2.7376 C   0  0
   -3.6841   -4.1013    4.8301 C   0  0
   -5.7943   -4.3695    3.4947 C   0  0
    5.0350   -0.1709    5.7261 C   0  0
    4.8549   -2.7825    4.1689 C   0  0
   -4.5440   -2.9116    0.6667 C   0  0
   -4.6239   -1.1978    3.1836 C   0  0
    2.4408   -0.4290    3.5332 C   0  0
   -1.6134   -1.4178    1.5527 C   0  0
    3.7053   -2.6008    6.9928 C   0  0
   -4.2594   -4.2225    3.4012 C   0  0
    0.2939   -1.3446    2.9987 O   0  0
   -0.3060    1.5354    2.0270 O   0  0
    1.8457   -0.8131    0.3561 O   0  0
    2.4711   -1.1628    4.7464 O   0  0
   -2.1500   -2.5068    2.2859 O   0  0
    3.9430   -1.6664    5.3777 Si  0  0
   -3.8144   -2.6995    2.3910 Si  0  0
    1.6966    1.3188    1.6738 H   0  0
    0.0110    0.0254    0.0212 H   0  0
    0.5375    0.4109    4.0405 H   0  0
    0.2351   -2.4614    1.2732 H   0  0
    3.6257   -0.7910    8.2383 H   0  0
    2.0419   -1.3601    7.6963 H   0  0
    2.8881   -2.2100    8.9960 H   0  0
    3.2531   -4.5227    6.0253 H   0  0
    1.8171   -3.5611    6.4049 H   0  0
    2.6816   -4.4067    7.6949 H   0  0
    5.5923   -3.7171    6.8345 H   0  0
    5.7247   -2.2083    7.7471 H   0  0
    4.9578   -3.6209    8.4835 H   0  0
   -4.0582   -5.6212    1.7173 H   0  0
   -2.5851   -5.4363    2.6773 H   0  0
   -3.9330   -6.3944    3.3042 H   0  0
   -4.0683   -3.2127    5.3450 H   0  0
   -2.5900   -4.0303    4.8188 H   0  0
   -3.9513   -4.9749    5.4362 H   0  0
   -6.2552   -3.4906    3.9609 H   0  0
   -6.2389   -4.4861    2.4995 H   0  0
   -6.0791   -5.2467    4.0876 H   0  0
    4.5523    0.5167    6.4273 H   0  0
    5.9922   -0.4729    6.1621 H   0  0
    5.2484    0.3856    4.8083 H   0  0
    4.2645   -3.6721    3.9292 H   0  0
    5.0659   -2.2606    3.2305 H   0  0
    5.8098   -3.1191    4.5843 H   0  0
   -4.1074   -3.7752    0.1558 H   0  0
   -5.6268   -3.0639    0.7113 H   0  0
   -4.3575   -2.0292    0.0470 H   0  0
   -4.2363   -1.0256    4.1923 H   0  0
   -4.4385   -0.2927    2.5971 H   0  0
   -5.7077   -1.3274    3.2614 H   0  0
    3.0172    0.4905    3.6593 H   0  0
    2.8902   -1.0324    2.7412 H   0  0
   -1.9504   -1.4870    0.5158 H   0  0
   -1.9738   -0.4833    1.9890 H   0  0
   -0.1067    2.1979    2.7107 H   0  0
    1.6594   -1.4889   -0.3183 H   0  0
  1  2  1  0
  1  3  1  0
  1 20  1  0
  2  4  1  0
  2 21  1  0
  3 15  1  0
  3 19  1  0
  4 16  1  0
  4 19  1  0
  5 17  1  0
  6 17  1  0
  7 17  1  0
  8 18  1  0
  9 18  1  0
 10 18  1  0
 11 24  1  0
 12 24  1  0
 13 25  1  0
 14 25  1  0
 15 22  1  0
 16 23  1  0
 17 24  1  0
 18 25  1  0
 22 24  1  0
 23 25  1  0
  1 26  1  0
  2 27  1  0
  3 28  1  0
  4 29  1  0
  5 30  1  0
  5 31  1  0
  5 32  1  0
  6 33  1  0
  6 34  1  0
  6 35  1  0
  7 36  1  0
  7 37  1  0
  7 38  1  0
  8 39  1  0
  8 40  1  0
  8 41  1  0
  9 42  1  0
  9 43  1  0
  9 44  1  0
 10 45  1  0
 10 46  1  0
 10 47  1  0
 11 48  1  0
 11 49  1  0
 11 50  1  0
 12 51  1  0
 12 52  1  0
 12 53  1  0
 13 54  1  0
 13 55  1  0
 13 56  1  0
 14 57  1  0
 14 58  1  0
 14 59  1  0
 15 60  1  0
 15 61  1  0
 16 62  1  0
 16 63  1  0
 20 64  1  0
 21 65  1  0
M  END
> <Name>
BR010337

$$$$
BR010338
  SciTegic05062102053D

 46 47  0  0  1  0            999 V2000
   -1.0282    1.9717    5.6649 C   0  0
   -0.2137    0.2927    0.8787 C   0  0
   -1.2445    0.1981    1.9999 C   0  0
    1.1760   -0.1212    1.3541 C   0  0
   -1.2615   -1.1936    2.6328 C   0  0
    1.1638   -1.5125    1.9885 C   0  0
   -0.1075   -0.2080    6.4292 C   0  0  1  0  0  0
    0.1267   -1.6281    3.1056 C   0  0
   -0.3955   -0.7292    7.8414 C   0  0  1  0  0  0
    0.6162   -1.8000    8.2581 C   0  0  2  0  0  0
    0.7564   -2.8684    7.1711 C   0  0  2  0  0  0
    0.1172   -1.3641    5.4468 C   0  0  2  0  0  0
   -2.2816    2.6483    5.2184 C   0  0
    1.8392   -3.8904    7.5041 C   0  0
   -1.1928    0.6371    5.9769 N   0  0
    0.0159    2.6106    5.7221 O   0  0
    1.1173   -2.2600    5.9309 O   0  0
   -0.3151    0.3650    8.7567 O   0  0
    0.1611   -2.3844    9.4757 O   0  0
    1.8957   -4.8436    6.4587 O   0  0
    0.5411   -0.8130    4.2001 O   0  0
   -0.5213   -0.3418    0.0401 H   0  0
   -0.1782    1.3228    0.5032 H   0  0
   -1.0270    0.9486    2.7678 H   0  0
   -2.2402    0.4267    1.6010 H   0  0
    1.8696   -0.1167    0.5044 H   0  0
    1.5521    0.6092    2.0789 H   0  0
   -1.9623   -1.2068    3.4803 H   0  0
   -1.6560   -1.9273    1.9167 H   0  0
    0.9687   -2.2721    1.2190 H   0  0
    2.1622   -1.7488    2.3853 H   0  0
    0.7773    0.4409    6.4497 H   0  0
    0.0860   -2.6648    3.4632 H   0  0
   -1.4175   -1.1247    7.9059 H   0  0
    1.5816   -1.3178    8.4584 H   0  0
   -0.1879   -3.4143    7.0452 H   0  0
   -0.8158   -1.9151    5.2701 H   0  0
   -2.8428    3.0902    6.0574 H   0  0
   -2.0852    3.4838    4.5274 H   0  0
   -3.0045    2.0030    4.6942 H   0  0
    1.5988   -4.3954    8.4396 H   0  0
    2.8054   -3.3938    7.5917 H   0  0
   -2.1171    0.2295    5.8851 H   0  0
    0.5857    0.7141    8.6857 H   0  0
   -0.7093   -2.7691    9.2890 H   0  0
    2.5905   -5.4827    6.6922 H   0  0
  1 13  1  0
  1 15  1  0
  1 16  2  0
  2  3  1  0
  2  4  1  0
  3  5  1  0
  4  6  1  0
  5  8  1  0
  6  8  1  0
  7  9  1  0
  7 12  1  0
  7 15  1  0
  8 21  1  0
  9 10  1  0
  9 18  1  0
 10 11  1  0
 10 19  1  0
 11 14  1  0
 11 17  1  0
 12 17  1  0
 12 21  1  0
 14 20  1  0
  2 22  1  0
  2 23  1  0
  3 24  1  0
  3 25  1  0
  4 26  1  0
  4 27  1  0
  5 28  1  0
  5 29  1  0
  6 30  1  0
  6 31  1  0
  7 32  1  0
  8 33  1  0
  9 34  1  0
 10 35  1  0
 11 36  1  0
 12 37  1  0
 13 38  1  0
 13 39  1  0
 13 40  1  0
 14 41  1  0
 14 42  1  0
 15 43  1  0
 18 44  1  0
 19 45  1  0
 20 46  1  0
M  END
> <Name>
BR010338

$$$$
BR010339
  SciTegic05062102053D

 55 55  0  0  1  0            999 V2000
   -1.1220    9.2676    6.8585 C   0  0
   -0.6363    8.1074    7.3140 C   0  0
    2.1665   -4.0796    1.5097 C   0  0  1  0  0  0
    1.5394   -5.4580    1.7282 C   0  0  1  0  0  0
    2.5852   -3.9052    0.0512 C   0  0  2  0  0  0
    2.4248   -6.5688    1.1474 C   0  0  1  0  0  0
    3.4213   -5.0873   -0.4418 C   0  0  2  0  0  0
    0.3329    7.2482    6.5557 C   0  0
    1.7473   -7.9350    1.2131 C   0  0
   -0.2625    5.8685    6.2646 C   0  0
    0.6914    4.9436    5.5022 C   0  0
    0.0717    3.5898    5.1459 C   0  0
    1.0797    2.6970    4.4177 C   0  0
    0.5129    1.3284    4.0277 C   0  0
    1.4556    0.4126    3.2400 C   0  0
    0.8424   -0.9510    2.9062 C   0  0
    1.7968   -1.8296    2.1049 C   0  0
    2.7228   -6.3159   -0.2305 O   0  0
    1.3647   -5.6464    3.1305 O   0  0
    3.3159   -2.6918   -0.0876 O   0  0
    4.7306   -5.1060    0.1240 O   0  0
    2.6201   -8.8975    0.6510 O   0  0
    1.1920   -3.0866    1.8382 O   0  0
   -1.8214    9.8574    7.4403 H   0  0
   -0.8213    9.6453    5.8873 H   0  0
   -0.9486    7.7613    8.2959 H   0  0
    3.0096   -3.9202    2.1892 H   0  0
    0.5453   -5.4732    1.2629 H   0  0
    1.6806   -3.8146   -0.5620 H   0  0
    3.3626   -6.6424    1.7136 H   0  0
    3.5583   -4.9840   -1.5437 H   0  0
    1.2411    7.1505    7.1606 H   0  0
    0.6245    7.7305    5.6148 H   0  0
    0.8174   -7.9158    0.6452 H   0  0
    1.5404   -8.1974    2.2503 H   0  0
   -1.1737    5.9870    5.6638 H   0  0
   -0.5671    5.3866    7.2024 H   0  0
    1.6035    4.7904    6.0919 H   0  0
    0.9946    5.4524    4.5786 H   0  0
   -0.8082    3.7545    4.5141 H   0  0
   -0.2666    3.0804    6.0549 H   0  0
    1.9464    2.5304    5.0699 H   0  0
    1.4607    3.2131    3.5290 H   0  0
    0.1995    0.8108    4.9429 H   0  0
   -0.3973    1.4793    3.4338 H   0  0
    1.7231    0.9295    2.3101 H   0  0
    2.3922    0.2731    3.7920 H   0  0
    0.5753   -1.4796    3.8272 H   0  0
   -0.0770   -0.7952    2.3290 H   0  0
    2.7129   -2.0045    2.6778 H   0  0
    2.0616   -1.3554    1.1544 H   0  0
    2.2471   -5.5890    3.5286 H   0  0
    3.5611   -2.6206   -1.0237 H   0  0
    5.1779   -5.8827   -0.2451 H   0  0
    2.1690   -9.7574    0.7035 H   0  0
  1  2  2  0
  2  8  1  0
  3  4  1  0
  3  5  1  0
  3 23  1  0
  4  6  1  0
  4 19  1  0
  5  7  1  0
  5 20  1  0
  6  9  1  0
  6 18  1  0
  7 18  1  0
  7 21  1  0
  8 10  1  0
  9 22  1  0
 10 11  1  0
 11 12  1  0
 12 13  1  0
 13 14  1  0
 14 15  1  0
 15 16  1  0
 16 17  1  0
 17 23  1  0
  1 24  1  0
  1 25  1  0
  2 26  1  0
  3 27  1  0
  4 28  1  0
  5 29  1  0
  6 30  1  0
  7 31  1  0
  8 32  1  0
  8 33  1  0
  9 34  1  0
  9 35  1  0
 10 36  1  0
 10 37  1  0
 11 38  1  0
 11 39  1  0
 12 40  1  0
 12 41  1  0
 13 42  1  0
 13 43  1  0
 14 44  1  0
 14 45  1  0
 15 46  1  0
 15 47  1  0
 16 48  1  0
 16 49  1  0
 17 50  1  0
 17 51  1  0
 19 52  1  0
 20 53  1  0
 21 54  1  0
 22 55  1  0
M  END
> <Name>
BR010339

$$$$
BR010340
  SciTegic05062102053D

 55 55  0  0  1  0            999 V2000
  -11.4582   -1.0207    6.6841 C   0  0
  -10.2363   -1.3053    6.2200 C   0  0
   -3.3066    1.9740   -5.2303 C   0  0  1  0  0  0
   -2.8028    1.1030   -6.3812 C   0  0  1  0  0  0
   -3.7170    3.3612   -5.7247 C   0  0  2  0  0  0
   -1.7590    1.8523   -7.2127 C   0  0  1  0  0  0
   -2.6379    3.9755   -6.6162 C   0  0  1  0  0  0
   -9.3649   -0.3226    5.4937 C   0  0
   -1.3218    1.0598   -8.4408 C   0  0
   -9.0513   -0.8052    4.0754 C   0  0
   -8.1520    0.1558    3.2915 C   0  0
   -7.8973   -0.2889    1.8488 C   0  0
   -6.9668    0.6891    1.1271 C   0  0
   -6.6808    0.2997   -0.3265 C   0  0
   -5.8051    1.2740   -1.1213 C   0  0
   -5.5308    0.8149   -2.5568 C   0  0
   -4.6753    1.8151   -3.3265 C   0  0
   -2.3036    3.0876   -7.6804 O   0  0
   -2.2380   -0.0812   -5.8245 O   0  0
   -3.9297    4.1978   -4.5885 O   0  0
   -3.1525    5.1959   -7.1476 O   0  0
   -0.3690    1.8253   -9.1556 O   0  0
   -4.4325    1.3365   -4.6415 O   0  0
  -12.0545   -1.7621    7.2041 H   0  0
  -11.8805   -0.0310    6.5483 H   0  0
   -9.8368   -2.3032    6.3816 H   0  0
   -2.5460    2.0484   -4.4430 H   0  0
   -3.6571    0.8061   -7.0032 H   0  0
   -4.6730    3.2992   -6.2599 H   0  0
   -0.8626    2.0558   -6.6121 H   0  0
   -1.7419    4.2232   -6.0330 H   0  0
   -8.4397   -0.2039    6.0684 H   0  0
   -9.8445    0.6628    5.4507 H   0  0
   -2.1810    0.8638   -9.0823 H   0  0
   -0.8693    0.1169   -8.1336 H   0  0
   -9.9894   -0.9241    3.5178 H   0  0
   -8.5820   -1.7967    4.1124 H   0  0
   -7.1967    0.2755    3.8170 H   0  0
   -8.6327    1.1420    3.2822 H   0  0
   -8.8549   -0.3545    1.3205 H   0  0
   -7.4461   -1.2872    1.8374 H   0  0
   -6.0085    0.7308    1.6604 H   0  0
   -7.3846    1.7014    1.1697 H   0  0
   -6.2051   -0.6890   -0.3322 H   0  0
   -7.6352    0.1838   -0.8555 H   0  0
   -6.3176    2.2438   -1.1404 H   0  0
   -4.8568    1.4402   -0.5973 H   0  0
   -5.0146   -0.1508   -2.5513 H   0  0
   -6.4875    0.6819   -3.0760 H   0  0
   -3.7109    1.9448   -2.8253 H   0  0
   -5.1720    2.7885   -3.3903 H   0  0
   -1.5115    0.2037   -5.2487 H   0  0
   -3.0885    4.2269   -4.1077 H   0  0
   -2.4543    5.5672   -7.7080 H   0  0
   -0.1060    1.3015   -9.9315 H   0  0
  1  2  2  0
  2  8  1  0
  3  4  1  0
  3  5  1  0
  3 23  1  0
  4  6  1  0
  4 19  1  0
  5  7  1  0
  5 20  1  0
  6  9  1  0
  6 18  1  0
  7 18  1  0
  7 21  1  0
  8 10  1  0
  9 22  1  0
 10 11  1  0
 11 12  1  0
 12 13  1  0
 13 14  1  0
 14 15  1  0
 15 16  1  0
 16 17  1  0
 17 23  1  0
  1 24  1  0
  1 25  1  0
  2 26  1  0
  3 27  1  0
  4 28  1  0
  5 29  1  0
  6 30  1  0
  7 31  1  0
  8 32  1  0
  8 33  1  0
  9 34  1  0
  9 35  1  0
 10 36  1  0
 10 37  1  0
 11 38  1  0
 11 39  1  0
 12 40  1  0
 12 41  1  0
 13 42  1  0
 13 43  1  0
 14 44  1  0
 14 45  1  0
 15 46  1  0
 15 47  1  0
 16 48  1  0
 16 49  1  0
 17 50  1  0
 17 51  1  0
 19 52  1  0
 20 53  1  0
 21 54  1  0
 22 55  1  0
M  END
> <Name>
BR010340

$$$$
BR010341
  SciTegic05062102053D

 38 40  0  0  1  0            999 V2000
   -1.2472   -3.4667    2.4167 C   0  0
   -0.3587   -2.3799    1.8619 C   0  0  2  0  0  0
   -1.0910   -1.0903    1.5387 C   0  0  2  0  0  0
   -1.0397    1.2611    1.4680 C   0  0  2  0  0  0
   -0.2098    0.0657    1.0720 C   0  0  1  0  0  0
   -1.7098    0.8153    2.7452 C   0  0  2  0  0  0
    0.2359   -4.3766    0.9619 C   0  0
   -3.2560    1.7671    1.3668 C   0  0
   -0.3855   -5.1432   -0.1988 C   0  0
    1.6900   -4.7776    1.1753 C   0  0
   -4.4475    0.9586    0.8718 C   0  0
   -3.5327    3.2639    1.2831 C   0  0
   -0.4993   -4.6572    2.1645 O   0  0
   -1.7712   -0.6206    2.7185 O   0  0
    0.1680   -2.9709    0.6706 O   0  0
   -2.1185    1.4546    0.5538 O   0  0
   -2.9938    1.4283    2.7339 O   0  0
    1.0192    0.0857    1.7854 O   0  0
   -1.4452   -3.3590    3.4863 H   0  0
   -2.1993   -3.5444    1.8799 H   0  0
    0.4843   -2.1851    2.5364 H   0  0
   -1.8656   -1.2930    0.7895 H   0  0
   -0.4868    2.1989    1.5799 H   0  0
    0.0000   -0.0001    0.0000 H   0  0
   -1.1611    1.1088    3.6453 H   0  0
   -1.4241   -4.8402   -0.3323 H   0  0
   -0.3526   -6.2141    0.0016 H   0  0
    0.1637   -4.9381   -1.1178 H   0  0
    2.1129   -4.2172    2.0092 H   0  0
    2.2706   -4.5668    0.2771 H   0  0
    1.7545   -5.8431    1.3963 H   0  0
   -4.2298   -0.1076    0.9397 H   0  0
   -4.6635    1.2093   -0.1672 H   0  0
   -5.3265    1.1788    1.4783 H   0  0
   -2.6685    3.8226    1.6417 H   0  0
   -4.3975    3.5171    1.8960 H   0  0
   -3.7347    3.5476    0.2505 H   0  0
    1.5292    0.8380    1.4439 H   0  0
  1  2  1  0
  1 13  1  0
  2  3  1  0
  2 15  1  0
  3  5  1  0
  3 14  1  0
  4  5  1  0
  4  6  1  0
  4 16  1  0
  5 18  1  0
  6 14  1  0
  6 17  1  0
  7  9  1  0
  7 10  1  0
  7 13  1  0
  7 15  1  0
  8 11  1  0
  8 12  1  0
  8 16  1  0
  8 17  1  0
  1 19  1  0
  1 20  1  0
  2 21  1  0
  3 22  1  0
  4 23  1  0
  5 24  1  0
  6 25  1  0
  9 26  1  0
  9 27  1  0
  9 28  1  0
 10 29  1  0
 10 30  1  0
 10 31  1  0
 11 32  1  0
 11 33  1  0
 11 34  1  0
 12 35  1  0
 12 36  1  0
 12 37  1  0
 18 38  1  0
M  END
> <Name>
BR010341

$$$$
BR010342
  SciTegic05062102053D

 51 54  0  0  1  0            999 V2000
    5.6443    0.7808    3.3763 C   0  0
    4.7066    1.7939    3.5764 C   0  0
    5.4017   -0.2176    2.4328 C   0  0
    3.5263    1.8085    2.8332 C   0  0
    4.2214   -0.2030    1.6896 C   0  0
    3.2837    0.8100    1.8898 C   0  0
   -1.2578   -3.5888    1.9536 C   0  0
   -0.3587   -2.3799    1.8619 C   0  0  2  0  0  0
   -1.0910   -1.0903    1.5387 C   0  0  2  0  0  0
   -1.0397    1.2611    1.4680 C   0  0  2  0  0  0
   -0.2098    0.0657    1.0720 C   0  0  1  0  0  0
   -1.7098    0.8153    2.7452 C   0  0  2  0  0  0
    0.6591   -4.1561    0.8825 C   0  0
   -3.2560    1.7671    1.3668 C   0  0
    0.4713   -4.7356   -0.5139 C   0  0
    2.0244   -4.5180    1.4534 C   0  0
   -4.4475    0.9586    0.8718 C   0  0
   -3.5327    3.2639    1.2831 C   0  0
    2.0141    0.8250    1.0901 C   0  0
   -0.3567   -4.6790    1.7544 O   0  0
   -1.7712   -0.6206    2.7185 O   0  0
    0.5401   -2.7260    0.8045 O   0  0
   -2.1185    1.4546    0.5538 O   0  0
   -2.9938    1.4283    2.7339 O   0  0
    1.0192    0.0857    1.7854 O   0  0
    6.5638    0.7704    3.9541 H   0  0
    4.8957    2.5720    4.3101 H   0  0
    6.1321   -1.0059    2.2760 H   0  0
    2.8013    2.6016    2.9960 H   0  0
    4.0409   -0.9851    0.9569 H   0  0
   -1.7615   -3.6806    2.9195 H   0  0
   -2.0057   -3.6166    1.1532 H   0  0
    0.2345   -2.2665    2.7778 H   0  0
   -1.8656   -1.2930    0.7895 H   0  0
   -0.4868    2.1989    1.5799 H   0  0
    0.0000   -0.0001    0.0000 H   0  0
   -1.1611    1.1088    3.6453 H   0  0
   -0.5108   -4.4642   -0.9013 H   0  0
    0.5502   -5.8223   -0.4803 H   0  0
    1.2365   -4.3459   -1.1854 H   0  0
    2.1359   -4.0934    2.4512 H   0  0
    2.8130   -4.1249    0.8117 H   0  0
    2.1269   -5.6015    1.5166 H   0  0
   -4.2298   -0.1076    0.9397 H   0  0
   -4.6635    1.2093   -0.1672 H   0  0
   -5.3265    1.1788    1.4783 H   0  0
   -2.6685    3.8226    1.6417 H   0  0
   -4.3975    3.5171    1.8960 H   0  0
   -3.7347    3.5476    0.2505 H   0  0
    1.6578    1.8498    0.9398 H   0  0
    2.1719    0.3755    0.1037 H   0  0
  1  2  1  0
  1  3  2  0
  2  4  2  0
  3  5  1  0
  4  6  1  0
  5  6  2  0
  6 19  1  0
  7  8  1  0
  7 20  1  0
  8  9  1  0
  8 22  1  0
  9 11  1  0
  9 21  1  0
 10 11  1  0
 10 12  1  0
 10 23  1  0
 11 25  1  0
 12 21  1  0
 12 24  1  0
 13 15  1  0
 13 16  1  0
 13 20  1  0
 13 22  1  0
 14 17  1  0
 14 18  1  0
 14 23  1  0
 14 24  1  0
 19 25  1  0
  1 26  1  0
  2 27  1  0
  3 28  1  0
  4 29  1  0
  5 30  1  0
  7 31  1  0
  7 32  1  0
  8 33  1  0
  9 34  1  0
 10 35  1  0
 11 36  1  0
 12 37  1  0
 15 38  1  0
 15 39  1  0
 15 40  1  0
 16 41  1  0
 16 42  1  0
 16 43  1  0
 17 44  1  0
 17 45  1  0
 17 46  1  0
 18 47  1  0
 18 48  1  0
 18 49  1  0
 19 50  1  0
 19 51  1  0
M  END
> <Name>
BR010342

$$$$
BR010343
  SciTegic05062102053D

 55 58  0  0  1  0            999 V2000
    8.1107    0.2433    3.5883 C   0  0
    6.9018    0.3703    4.2726 C   0  0
    8.1173    0.1419    2.1971 C   0  0
    5.6996    0.3957    3.5657 C   0  0
    6.9151    0.1673    1.4902 C   0  0
    5.7063    0.2942    2.1745 C   0  0
    4.4374    0.3209    1.4277 C   0  0
    3.2754    0.8055    1.8927 C   0  0
   -1.2578   -3.5888    1.9536 C   0  0
   -0.3587   -2.3799    1.8619 C   0  0  2  0  0  0
   -1.0910   -1.0903    1.5387 C   0  0  2  0  0  0
   -1.0397    1.2611    1.4680 C   0  0  2  0  0  0
   -0.2098    0.0657    1.0720 C   0  0  1  0  0  0
   -1.7098    0.8153    2.7452 C   0  0  2  0  0  0
    0.6591   -4.1561    0.8825 C   0  0
   -3.2560    1.7671    1.3668 C   0  0
    0.4713   -4.7356   -0.5139 C   0  0
    2.0244   -4.5180    1.4534 C   0  0
   -4.4475    0.9586    0.8718 C   0  0
   -3.5327    3.2639    1.2831 C   0  0
    2.0141    0.8250    1.0901 C   0  0
   -0.3567   -4.6790    1.7544 O   0  0
   -1.7712   -0.6206    2.7185 O   0  0
    0.5401   -2.7260    0.8045 O   0  0
   -2.1185    1.4546    0.5538 O   0  0
   -2.9938    1.4283    2.7339 O   0  0
    1.0192    0.0857    1.7854 O   0  0
    9.0468    0.2248    4.1386 H   0  0
    6.8965    0.4505    5.3558 H   0  0
    9.0585    0.0443    1.6641 H   0  0
    4.7653    0.4951    4.1131 H   0  0
    6.9368    0.0872    0.4060 H   0  0
    4.4786   -0.0728    0.4145 H   0  0
    3.2115    1.2313    2.8905 H   0  0
   -1.7615   -3.6806    2.9195 H   0  0
   -2.0057   -3.6166    1.1532 H   0  0
    0.2345   -2.2665    2.7778 H   0  0
   -1.8656   -1.2930    0.7895 H   0  0
   -0.4868    2.1989    1.5799 H   0  0
    0.0000   -0.0001    0.0000 H   0  0
   -1.1611    1.1088    3.6453 H   0  0
   -0.5108   -4.4642   -0.9013 H   0  0
    0.5502   -5.8223   -0.4803 H   0  0
    1.2365   -4.3459   -1.1854 H   0  0
    2.1359   -4.0934    2.4512 H   0  0
    2.8130   -4.1249    0.8117 H   0  0
    2.1269   -5.6015    1.5166 H   0  0
   -4.2298   -0.1076    0.9397 H   0  0
   -4.6635    1.2093   -0.1672 H   0  0
   -5.3265    1.1788    1.4783 H   0  0
   -2.6685    3.8226    1.6417 H   0  0
   -4.3975    3.5171    1.8960 H   0  0
   -3.7347    3.5476    0.2505 H   0  0
    1.6658    1.8560    0.9737 H   0  0
    2.1467    0.3830    0.0975 H   0  0
  1  2  1  0
  1  3  2  0
  2  4  2  0
  3  5  1  0
  4  6  1  0
  5  6  2  0
  6  7  1  0
  7  8  2  0
  8 21  1  0
  9 10  1  0
  9 22  1  0
 10 11  1  0
 10 24  1  0
 11 13  1  0
 11 23  1  0
 12 13  1  0
 12 14  1  0
 12 25  1  0
 13 27  1  0
 14 23  1  0
 14 26  1  0
 15 17  1  0
 15 18  1  0
 15 22  1  0
 15 24  1  0
 16 19  1  0
 16 20  1  0
 16 25  1  0
 16 26  1  0
 21 27  1  0
  1 28  1  0
  2 29  1  0
  3 30  1  0
  4 31  1  0
  5 32  1  0
  7 33  1  0
  8 34  1  0
  9 35  1  0
  9 36  1  0
 10 37  1  0
 11 38  1  0
 12 39  1  0
 13 40  1  0
 14 41  1  0
 17 42  1  0
 17 43  1  0
 17 44  1  0
 18 45  1  0
 18 46  1  0
 18 47  1  0
 19 48  1  0
 19 49  1  0
 19 50  1  0
 20 51  1  0
 20 52  1  0
 20 53  1  0
 21 54  1  0
 21 55  1  0
M  END
> <Name>
BR010343

$$$$
BR010344
  SciTegic05062102053D

 57 60  0  0  1  0            999 V2000
    7.3904   -0.7433    4.4627 C   0  0
    7.4799   -0.6171    3.0764 C   0  0
    6.1407   -0.8360    5.0754 C   0  0
    6.3197   -0.5834    2.3029 C   0  0
    4.9805   -0.8023    4.3018 C   0  0
    5.0700   -0.6760    2.9155 C   0  0
   -1.2578   -3.5888    1.9536 C   0  0
   -0.3587   -2.3799    1.8619 C   0  0  2  0  0  0
   -1.0910   -1.0903    1.5387 C   0  0  2  0  0  0
   -1.0397    1.2611    1.4680 C   0  0  2  0  0  0
   -0.2098    0.0657    1.0720 C   0  0  1  0  0  0
   -1.7098    0.8153    2.7452 C   0  0  2  0  0  0
    0.6591   -4.1561    0.8825 C   0  0
   -3.2560    1.7671    1.3668 C   0  0
    0.4713   -4.7356   -0.5139 C   0  0
    2.0244   -4.5180    1.4534 C   0  0
   -4.4475    0.9586    0.8718 C   0  0
   -3.5327    3.2639    1.2831 C   0  0
    3.8154   -0.6395    2.0799 C   0  0
    3.3058    0.7900    1.8951 C   0  0
    2.0141    0.8250    1.0901 C   0  0
   -0.3567   -4.6790    1.7544 O   0  0
   -1.7712   -0.6206    2.7185 O   0  0
    0.5401   -2.7260    0.8045 O   0  0
   -2.1185    1.4546    0.5538 O   0  0
   -2.9938    1.4283    2.7339 O   0  0
    1.0192    0.0857    1.7854 O   0  0
    8.2939   -0.7709    5.0648 H   0  0
    8.4529   -0.5461    2.5991 H   0  0
    6.0707   -0.9354    6.1545 H   0  0
    6.3991   -0.4847    1.2234 H   0  0
    4.0111   -0.8750    4.7878 H   0  0
   -1.7615   -3.6806    2.9195 H   0  0
   -2.0057   -3.6166    1.1532 H   0  0
    0.2345   -2.2665    2.7778 H   0  0
   -1.8656   -1.2930    0.7895 H   0  0
   -0.4868    2.1989    1.5799 H   0  0
    0.0000   -0.0001    0.0000 H   0  0
   -1.1611    1.1088    3.6453 H   0  0
   -0.5108   -4.4642   -0.9013 H   0  0
    0.5502   -5.8223   -0.4803 H   0  0
    1.2365   -4.3459   -1.1854 H   0  0
    2.1359   -4.0934    2.4512 H   0  0
    2.8130   -4.1249    0.8117 H   0  0
    2.1269   -5.6015    1.5166 H   0  0
   -4.2298   -0.1076    0.9397 H   0  0
   -4.6635    1.2093   -0.1672 H   0  0
   -5.3265    1.1788    1.4783 H   0  0
   -2.6685    3.8226    1.6417 H   0  0
   -4.3975    3.5171    1.8960 H   0  0
   -3.7347    3.5476    0.2505 H   0  0
    3.0374   -1.2532    2.5520 H   0  0
    4.0096   -1.0942    1.0999 H   0  0
    4.0627    1.4071    1.3934 H   0  0
    3.1391    1.2682    2.8694 H   0  0
    1.6596    1.8531    0.9648 H   0  0
    2.1570    0.3738    0.1030 H   0  0
  1  2  1  0
  1  3  2  0
  2  4  2  0
  3  5  1  0
  4  6  1  0
  5  6  2  0
  6 19  1  0
  7  8  1  0
  7 22  1  0
  8  9  1  0
  8 24  1  0
  9 11  1  0
  9 23  1  0
 10 11  1  0
 10 12  1  0
 10 25  1  0
 11 27  1  0
 12 23  1  0
 12 26  1  0
 13 15  1  0
 13 16  1  0
 13 22  1  0
 13 24  1  0
 14 17  1  0
 14 18  1  0
 14 25  1  0
 14 26  1  0
 19 20  1  0
 20 21  1  0
 21 27  1  0
  1 28  1  0
  2 29  1  0
  3 30  1  0
  4 31  1  0
  5 32  1  0
  7 33  1  0
  7 34  1  0
  8 35  1  0
  9 36  1  0
 10 37  1  0
 11 38  1  0
 12 39  1  0
 15 40  1  0
 15 41  1  0
 15 42  1  0
 16 43  1  0
 16 44  1  0
 16 45  1  0
 17 46  1  0
 17 47  1  0
 17 48  1  0
 18 49  1  0
 18 50  1  0
 18 51  1  0
 19 52  1  0
 19 53  1  0
 20 54  1  0
 20 55  1  0
 21 56  1  0
 21 57  1  0
M  END
> <Name>
BR010344

$$$$
BR010345
  SciTegic05062102053D

 64 66  0  0  1  0            999 V2000
    9.9975   -5.3475    4.8888 C   0  0
    8.8161   -4.8566    5.2792 C   0  0
   -1.2578   -3.5888    1.9536 C   0  0
   -0.3587   -2.3799    1.8619 C   0  0  2  0  0  0
   -1.0910   -1.0903    1.5387 C   0  0  2  0  0  0
   -1.0397    1.2611    1.4680 C   0  0  2  0  0  0
   -0.2098    0.0657    1.0720 C   0  0  1  0  0  0
   -1.7098    0.8153    2.7452 C   0  0  2  0  0  0
    0.6591   -4.1561    0.8825 C   0  0
   -3.2560    1.7671    1.3668 C   0  0
    0.4713   -4.7356   -0.5139 C   0  0
    2.0244   -4.5180    1.4534 C   0  0
   -4.4475    0.9586    0.8718 C   0  0
   -3.5327    3.2639    1.2831 C   0  0
    8.4191   -3.4250    5.1342 C   0  0
    3.8031   -0.5942    2.1629 C   0  0
    5.0647   -0.5891    3.0276 C   0  0
    3.2939    0.8238    1.9143 C   0  0
    5.5931   -2.0047    3.2483 C   0  0
    2.0141    0.8250    1.0901 C   0  0
    6.8251   -2.0114    4.1425 C   0  0
   -0.3567   -4.6790    1.7544 O   0  0
   -1.7712   -0.6206    2.7185 O   0  0
    0.5401   -2.7260    0.8045 O   0  0
   -2.1185    1.4546    0.5538 O   0  0
   -2.9938    1.4283    2.7339 O   0  0
    1.0192    0.0857    1.7854 O   0  0
    7.2562   -3.3536    4.3201 O   0  0
   10.2454   -6.3958    5.0131 H   0  0
   10.7390   -4.6990    4.4351 H   0  0
    8.0980   -5.5307    5.7388 H   0  0
   -1.7615   -3.6806    2.9195 H   0  0
   -2.0057   -3.6166    1.1532 H   0  0
    0.2345   -2.2665    2.7778 H   0  0
   -1.8656   -1.2930    0.7895 H   0  0
   -0.4868    2.1989    1.5799 H   0  0
    0.0000   -0.0001    0.0000 H   0  0
   -1.1611    1.1088    3.6453 H   0  0
   -0.5108   -4.4642   -0.9013 H   0  0
    0.5502   -5.8223   -0.4803 H   0  0
    1.2365   -4.3459   -1.1854 H   0  0
    2.1359   -4.0934    2.4512 H   0  0
    2.8130   -4.1249    0.8117 H   0  0
    2.1269   -5.6015    1.5166 H   0  0
   -4.2298   -0.1076    0.9397 H   0  0
   -4.6635    1.2093   -0.1672 H   0  0
   -5.3265    1.1788    1.4783 H   0  0
   -2.6685    3.8226    1.6417 H   0  0
   -4.3975    3.5171    1.8960 H   0  0
   -3.7347    3.5476    0.2505 H   0  0
    9.2069   -2.8225    4.6710 H   0  0
    8.1841   -3.0042    6.1168 H   0  0
    4.0170   -1.0809    1.2036 H   0  0
    3.0215   -1.1838    2.6574 H   0  0
    4.8441   -0.1240    3.9961 H   0  0
    5.8384    0.0204    2.5450 H   0  0
    4.0589    1.4171    1.3979 H   0  0
    3.1118    1.3349    2.8680 H   0  0
    5.8403   -2.4718    2.2867 H   0  0
    4.8152   -2.6352    3.6969 H   0  0
    2.1775    0.3561    0.1144 H   0  0
    1.6477    1.8454    0.9384 H   0  0
    6.5970   -1.5863    5.1250 H   0  0
    7.6410   -1.4410    3.6874 H   0  0
  1  2  2  0
  2 15  1  0
  3  4  1  0
  3 22  1  0
  4  5  1  0
  4 24  1  0
  5  7  1  0
  5 23  1  0
  6  7  1  0
  6  8  1  0
  6 25  1  0
  7 27  1  0
  8 23  1  0
  8 26  1  0
  9 11  1  0
  9 12  1  0
  9 22  1  0
  9 24  1  0
 10 13  1  0
 10 14  1  0
 10 25  1  0
 10 26  1  0
 15 28  1  0
 16 17  1  0
 16 18  1  0
 17 19  1  0
 18 20  1  0
 19 21  1  0
 20 27  1  0
 21 28  1  0
  1 29  1  0
  1 30  1  0
  2 31  1  0
  3 32  1  0
  3 33  1  0
  4 34  1  0
  5 35  1  0
  6 36  1  0
  7 37  1  0
  8 38  1  0
 11 39  1  0
 11 40  1  0
 11 41  1  0
 12 42  1  0
 12 43  1  0
 12 44  1  0
 13 45  1  0
 13 46  1  0
 13 47  1  0
 14 48  1  0
 14 49  1  0
 14 50  1  0
 15 51  1  0
 15 52  1  0
 16 53  1  0
 16 54  1  0
 17 55  1  0
 17 56  1  0
 18 57  1  0
 18 58  1  0
 19 59  1  0
 19 60  1  0
 20 61  1  0
 20 62  1  0
 21 63  1  0
 21 64  1  0
M  END
> <Name>
BR010345

$$$$
BR010346
  SciTegic05062102053D

 70 73  0  0  1  0            999 V2000
    9.5780   -7.5335    5.5627 C   0  0
    8.6952   -6.9591    6.4771 C   0  0
   10.0841   -6.7721    4.5092 C   0  0
    8.3183   -5.6233    6.3381 C   0  0
    9.7072   -5.4363    4.3701 C   0  0
    8.8243   -4.8619    5.2845 C   0  0
   -1.2578   -3.5888    1.9536 C   0  0
   -0.3587   -2.3799    1.8619 C   0  0  2  0  0  0
   -1.0910   -1.0903    1.5387 C   0  0  2  0  0  0
   -1.0397    1.2611    1.4680 C   0  0  2  0  0  0
   -0.2098    0.0657    1.0720 C   0  0  1  0  0  0
   -1.7098    0.8153    2.7452 C   0  0  2  0  0  0
    0.6591   -4.1561    0.8825 C   0  0
   -3.2560    1.7671    1.3668 C   0  0
    0.4713   -4.7356   -0.5139 C   0  0
    2.0244   -4.5180    1.4534 C   0  0
   -4.4475    0.9586    0.8718 C   0  0
   -3.5327    3.2639    1.2831 C   0  0
    8.4191   -3.4250    5.1342 C   0  0
    3.8031   -0.5942    2.1629 C   0  0
    5.0647   -0.5891    3.0276 C   0  0
    3.2939    0.8238    1.9143 C   0  0
    5.5931   -2.0047    3.2483 C   0  0
    2.0141    0.8250    1.0901 C   0  0
    6.8251   -2.0114    4.1425 C   0  0
   -0.3567   -4.6790    1.7544 O   0  0
   -1.7712   -0.6206    2.7185 O   0  0
    0.5401   -2.7260    0.8045 O   0  0
   -2.1185    1.4546    0.5538 O   0  0
   -2.9938    1.4283    2.7339 O   0  0
    1.0192    0.0857    1.7854 O   0  0
    7.2562   -3.3536    4.3201 O   0  0
    9.8724   -8.5732    5.6719 H   0  0
    8.3019   -7.5515    7.2981 H   0  0
   10.7723   -7.2187    3.7977 H   0  0
    7.6297   -5.1842    7.0552 H   0  0
   10.1064   -4.8508    3.5461 H   0  0
   -1.7615   -3.6806    2.9195 H   0  0
   -2.0057   -3.6166    1.1532 H   0  0
    0.2345   -2.2665    2.7778 H   0  0
   -1.8656   -1.2930    0.7895 H   0  0
   -0.4868    2.1989    1.5799 H   0  0
    0.0000   -0.0001    0.0000 H   0  0
   -1.1611    1.1088    3.6453 H   0  0
   -0.5108   -4.4642   -0.9013 H   0  0
    0.5502   -5.8223   -0.4803 H   0  0
    1.2365   -4.3459   -1.1854 H   0  0
    2.1359   -4.0934    2.4512 H   0  0
    2.8130   -4.1249    0.8117 H   0  0
    2.1269   -5.6015    1.5166 H   0  0
   -4.2298   -0.1076    0.9397 H   0  0
   -4.6635    1.2093   -0.1672 H   0  0
   -5.3265    1.1788    1.4783 H   0  0
   -2.6685    3.8226    1.6417 H   0  0
   -4.3975    3.5171    1.8960 H   0  0
   -3.7347    3.5476    0.2505 H   0  0
    8.2009   -2.9754    6.1089 H   0  0
    9.2209   -2.8429    4.6671 H   0  0
    4.0170   -1.0809    1.2036 H   0  0
    3.0215   -1.1838    2.6574 H   0  0
    4.8441   -0.1240    3.9961 H   0  0
    5.8385    0.0204    2.5450 H   0  0
    4.0589    1.4171    1.3979 H   0  0
    3.1118    1.3349    2.8680 H   0  0
    5.8403   -2.4718    2.2867 H   0  0
    4.8152   -2.6352    3.6969 H   0  0
    2.1775    0.3561    0.1144 H   0  0
    1.6477    1.8454    0.9384 H   0  0
    6.5970   -1.5863    5.1250 H   0  0
    7.6410   -1.4410    3.6874 H   0  0
  1  2  2  0
  1  3  1  0
  2  4  1  0
  3  5  2  0
  4  6  2  0
  5  6  1  0
  6 19  1  0
  7  8  1  0
  7 26  1  0
  8  9  1  0
  8 28  1  0
  9 11  1  0
  9 27  1  0
 10 11  1  0
 10 12  1  0
 10 29  1  0
 11 31  1  0
 12 27  1  0
 12 30  1  0
 13 15  1  0
 13 16  1  0
 13 26  1  0
 13 28  1  0
 14 17  1  0
 14 18  1  0
 14 29  1  0
 14 30  1  0
 19 32  1  0
 20 21  1  0
 20 22  1  0
 21 23  1  0
 22 24  1  0
 23 25  1  0
 24 31  1  0
 25 32  1  0
  1 33  1  0
  2 34  1  0
  3 35  1  0
  4 36  1  0
  5 37  1  0
  7 38  1  0
  7 39  1  0
  8 40  1  0
  9 41  1  0
 10 42  1  0
 11 43  1  0
 12 44  1  0
 15 45  1  0
 15 46  1  0
 15 47  1  0
 16 48  1  0
 16 49  1  0
 16 50  1  0
 17 51  1  0
 17 52  1  0
 17 53  1  0
 18 54  1  0
 18 55  1  0
 18 56  1  0
 19 57  1  0
 19 58  1  0
 20 59  1  0
 20 60  1  0
 21 61  1  0
 21 62  1  0
 22 63  1  0
 22 64  1  0
 23 65  1  0
 23 66  1  0
 24 67  1  0
 24 68  1  0
 25 69  1  0
 25 70  1  0
M  END
> <Name>
BR010346

$$$$
BR010347
  SciTegic05062102053D

 78 81  0  0  1  0            999 V2000
   -3.3183   -7.2420    8.2731 C   0  0
   -2.3773   -6.2408    8.0331 C   0  0
   -2.4344   -8.5167    6.4209 C   0  0
   -3.3468   -8.3800    7.4670 C   0  0
   -1.4649   -6.3775    6.9869 C   0  0
   -1.4934   -7.5155    6.1808 C   0  0
   -3.6990  -11.7936    8.3708 C   0  0
   -3.8585  -10.5031    8.6855 C   0  0
    3.4921   -2.5629   -0.5779 C   0  0
    2.6715   -1.7039    0.3533 C   0  0  2  0  0  0
    2.3782   -0.3159   -0.1865 C   0  0  2  0  0  0
    1.1020    1.6537   -0.0190 C   0  0  2  0  0  0
    1.8889    0.6991    0.8435 C   0  0  1  0  0  0
    0.4999    0.7579   -1.0746 C   0  0  2  0  0  0
    4.2021   -2.8730    1.5537 C   0  0
    1.4266    2.5884   -2.0682 C   0  0
    5.6787   -2.5829    1.7910 C   0  0
    3.6272   -3.7560    2.6539 C   0  0
    2.5570    2.4281   -3.0756 C   0  0
    0.7186    3.9271   -2.2428 C   0  0
   -0.7040   -8.8525    4.3794 C   0  0
   -4.3512   -9.4518    7.7252 C   0  0
   -0.5510   -1.9670    5.2040 C   0  0
    0.4375   -1.2558    4.2786 C   0  0
   -0.0569   -3.3629    5.5775 C   0  0
   -0.0402    0.1527    3.9321 C   0  0
   -1.0553   -4.0939    6.4640 C   0  0
    0.9178    0.8520    2.9780 C   0  0
    4.0470   -3.5483    0.2946 O   0  0
    1.3420   -0.4021   -1.1834 O   0  0
    3.4894   -1.6253    1.5241 O   0  0
    1.9750    2.5171   -0.7465 O   0  0
    0.4710    1.5391   -2.2635 O   0  0
   -0.6080   -7.6598    5.1556 O   0  0
   -0.5452   -5.3862    6.7615 O   0  0
    1.0192    0.0857    1.7854 O   0  0
   -4.0241   -7.1277    9.0914 H   0  0
   -2.3609   -5.3567    8.6646 H   0  0
   -2.4542   -9.4031    5.7913 H   0  0
   -3.3408  -12.5145    9.0973 H   0  0
   -3.9287  -12.1478    7.3719 H   0  0
   -3.6250  -10.1832    9.6981 H   0  0
    2.8984   -3.0382   -1.3631 H   0  0
    4.3203   -2.0111   -1.0365 H   0  0
    1.7406   -2.2129    0.6324 H   0  0
    3.2705    0.0701   -0.6937 H   0  0
    0.3548    2.2547    0.5087 H   0  0
    2.7252    1.1611    1.3769 H   0  0
   -0.5089    0.4152   -0.8253 H   0  0
    6.0676   -1.9506    0.9927 H   0  0
    6.2434   -3.5150    1.8107 H   0  0
    5.8094   -2.0699    2.7440 H   0  0
    2.5716   -3.9499    2.4633 H   0  0
    3.7269   -3.2607    3.6199 H   0  0
    4.1610   -4.7060    2.6868 H   0  0
    3.0500    1.4658   -2.9344 H   0  0
    3.2911    3.2234   -2.9433 H   0  0
    2.1625    2.4770   -4.0910 H   0  0
   -0.0853    4.0207   -1.5131 H   0  0
    0.2971    3.9969   -3.2453 H   0  0
    1.4258    4.7435   -2.0979 H   0  0
    0.0583   -8.8410    3.5965 H   0  0
   -1.6993   -8.9184    3.9327 H   0  0
   -0.5413   -9.7145    5.0306 H   0  0
   -5.2774   -9.0184    8.1389 H   0  0
   -4.6609   -9.9154    6.7730 H   0  0
   -0.6948   -1.3727    6.1146 H   0  0
   -1.5272   -2.0429    4.7098 H   0  0
    0.5626   -1.8383    3.3578 H   0  0
    1.4202   -1.2013    4.7628 H   0  0
    0.9087   -3.2984    6.0947 H   0  0
    0.1271   -3.9556    4.6726 H   0  0
   -0.1459    0.7528    4.8446 H   0  0
   -1.0395    0.1148    3.4806 H   0  0
   -2.0181   -4.2085    5.9557 H   0  0
   -1.2104   -3.5555    7.4045 H   0  0
    1.9150    0.9403    3.4207 H   0  0
    0.5521    1.8509    2.7200 H   0  0
  1  2  2  0
  1  4  1  0
  2  5  1  0
  3  4  2  0
  3  6  1  0
  4 22  1  0
  5  6  2  0
  5 35  1  0
  6 34  1  0
  7  8  2  0
  8 22  1  0
  9 10  1  0
  9 29  1  0
 10 11  1  0
 10 31  1  0
 11 13  1  0
 11 30  1  0
 12 13  1  0
 12 14  1  0
 12 32  1  0
 13 36  1  0
 14 30  1  0
 14 33  1  0
 15 17  1  0
 15 18  1  0
 15 29  1  0
 15 31  1  0
 16 19  1  0
 16 20  1  0
 16 32  1  0
 16 33  1  0
 21 34  1  0
 23 24  1  0
 23 25  1  0
 24 26  1  0
 25 27  1  0
 26 28  1  0
 27 35  1  0
 28 36  1  0
  1 37  1  0
  2 38  1  0
  3 39  1  0
  7 40  1  0
  7 41  1  0
  8 42  1  0
  9 43  1  0
  9 44  1  0
 10 45  1  0
 11 46  1  0
 12 47  1  0
 13 48  1  0
 14 49  1  0
 17 50  1  0
 17 51  1  0
 17 52  1  0
 18 53  1  0
 18 54  1  0
 18 55  1  0
 19 56  1  0
 19 57  1  0
 19 58  1  0
 20 59  1  0
 20 60  1  0
 20 61  1  0
 21 62  1  0
 21 63  1  0
 21 64  1  0
 22 65  1  0
 22 66  1  0
 23 67  1  0
 23 68  1  0
 24 69  1  0
 24 70  1  0
 25 71  1  0
 25 72  1  0
 26 73  1  0
 26 74  1  0
 27 75  1  0
 27 76  1  0
 28 77  1  0
 28 78  1  0
M  END
> <Name>
BR010347

$$$$
BR010348
  SciTegic05062102053D

 69 72  0  0  1  0            999 V2000
    1.2662    3.4946    6.3785 C   0  0
    2.0574    2.9523    5.3659 C   0  0
    0.1390    4.8832    4.7543 C   0  0
    0.3069    4.4600    6.0727 C   0  0
    1.8895    3.3755    4.0474 C   0  0
    0.9303    4.3410    3.7416 C   0  0
   -3.0415    4.7716    7.2061 C   0  0
   -1.8152    4.2665    7.3816 C   0  0
   -1.2472   -3.4667    2.4167 C   0  0
   -0.3587   -2.3799    1.8619 C   0  0  2  0  0  0
   -1.0910   -1.0903    1.5387 C   0  0  2  0  0  0
   -1.0397    1.2611    1.4680 C   0  0  2  0  0  0
   -0.2098    0.0657    1.0720 C   0  0  1  0  0  0
   -1.7098    0.8153    2.7452 C   0  0  2  0  0  0
    0.2359   -4.3766    0.9619 C   0  0
   -3.2560    1.7671    1.3668 C   0  0
   -0.3855   -5.1432   -0.1988 C   0  0
    1.6900   -4.7776    1.1753 C   0  0
   -4.4475    0.9586    0.8718 C   0  0
   -3.5327    3.2639    1.2831 C   0  0
   -0.2438    5.7523    2.2299 C   0  0
   -0.5409    5.0379    7.1550 C   0  0
    3.3029    0.8416    1.8972 C   0  0
    3.1162    1.4986    3.2548 C   0  0
    2.0141    0.8250    1.0901 C   0  0
   -0.4993   -4.6572    2.1645 O   0  0
   -1.7712   -0.6206    2.7185 O   0  0
    0.1680   -2.9709    0.6706 O   0  0
   -2.1185    1.4546    0.5538 O   0  0
   -2.9938    1.4283    2.7339 O   0  0
    0.7577    4.7628    2.4578 O   0  0
    2.6736    2.8349    3.0615 O   0  0
    1.0192    0.0857    1.7854 O   0  0
    1.4028    3.1577    7.4026 H   0  0
    2.8030    2.2010    5.6112 H   0  0
   -0.6085    5.6352    4.5131 H   0  0
   -3.9307    4.1766    7.3821 H   0  0
   -3.1713    5.7983    6.8818 H   0  0
   -1.7214    3.2354    7.7138 H   0  0
   -1.4452   -3.3590    3.4863 H   0  0
   -2.1993   -3.5444    1.8799 H   0  0
    0.4843   -2.1851    2.5364 H   0  0
   -1.8656   -1.2930    0.7895 H   0  0
   -0.4868    2.1989    1.5799 H   0  0
    0.0000   -0.0001    0.0000 H   0  0
   -1.1611    1.1088    3.6453 H   0  0
   -1.4241   -4.8402   -0.3323 H   0  0
   -0.3526   -6.2141    0.0016 H   0  0
    0.1637   -4.9381   -1.1178 H   0  0
    2.1129   -4.2172    2.0092 H   0  0
    2.2706   -4.5668    0.2771 H   0  0
    1.7544   -5.8431    1.3963 H   0  0
   -4.2298   -0.1076    0.9397 H   0  0
   -4.6635    1.2093   -0.1672 H   0  0
   -5.3265    1.1788    1.4783 H   0  0
   -2.6685    3.8226    1.6417 H   0  0
   -4.3975    3.5171    1.8960 H   0  0
   -3.7347    3.5476    0.2505 H   0  0
   -0.2778    5.9991    1.1659 H   0  0
   -0.0139    6.6463    2.8150 H   0  0
   -1.2131    5.3553    2.5406 H   0  0
    0.0164    5.0642    8.1066 H   0  0
   -0.7656    6.0953    6.9337 H   0  0
    4.0911    1.3580    1.3345 H   0  0
    3.6805   -0.1810    2.0252 H   0  0
    2.3656    0.9655    3.8470 H   0  0
    4.0588    1.5210    3.8108 H   0  0
    2.1696    0.3484    0.1173 H   0  0
    1.6374    1.8386    0.9196 H   0  0
  1  2  2  0
  1  4  1  0
  2  5  1  0
  3  4  2  0
  3  6  1  0
  4 22  1  0
  5  6  2  0
  5 32  1  0
  6 31  1  0
  7  8  2  0
  8 22  1  0
  9 10  1  0
  9 26  1  0
 10 11  1  0
 10 28  1  0
 11 13  1  0
 11 27  1  0
 12 13  1  0
 12 14  1  0
 12 29  1  0
 13 33  1  0
 14 27  1  0
 14 30  1  0
 15 17  1  0
 15 18  1  0
 15 26  1  0
 15 28  1  0
 16 19  1  0
 16 20  1  0
 16 29  1  0
 16 30  1  0
 21 31  1  0
 23 24  1  0
 23 25  1  0
 24 32  1  0
 25 33  1  0
  1 34  1  0
  2 35  1  0
  3 36  1  0
  7 37  1  0
  7 38  1  0
  8 39  1  0
  9 40  1  0
  9 41  1  0
 10 42  1  0
 11 43  1  0
 12 44  1  0
 13 45  1  0
 14 46  1  0
 17 47  1  0
 17 48  1  0
 17 49  1  0
 18 50  1  0
 18 51  1  0
 18 52  1  0
 19 53  1  0
 19 54  1  0
 19 55  1  0
 20 56  1  0
 20 57  1  0
 20 58  1  0
 21 59  1  0
 21 60  1  0
 21 61  1  0
 22 62  1  0
 22 63  1  0
 23 64  1  0
 23 65  1  0
 24 66  1  0
 24 67  1  0
 25 68  1  0
 25 69  1  0
M  END
> <Name>
BR010348

$$$$
BR010349
  SciTegic05062102053D

 62 65  0  0  1  0            999 V2000
    5.9885    2.4617    2.9656 C   0  0
    6.6245    0.4911    1.7209 C   0  0
    7.1829    2.3944    3.6827 C   0  0
    7.8191    0.4238    2.4380 C   0  0
    5.7092    1.5100    1.9847 C   0  0
    8.0983    1.3754    3.4189 C   0  0
   10.3452    0.4302    6.0663 C   0  0
    9.2809    0.5854    5.2760 C   0  0
    0.3213   -3.0133    0.6725 C   0  0
   -0.3587   -2.3799    1.8619 C   0  0  1  0  0  0
   -1.0910   -1.0903    1.5387 C   0  0  2  0  0  0
   -1.0397    1.2611    1.4680 C   0  0  2  0  0  0
   -0.2098    0.0657    1.0720 C   0  0  1  0  0  0
   -1.7098    0.8153    2.7452 C   0  0  2  0  0  0
   -0.6413   -4.6304    1.9380 C   0  0
   -3.2560    1.7671    1.3668 C   0  0
   -0.1371   -5.3063    3.2067 C   0  0
   -1.6481   -5.5082    1.2054 C   0  0
   -4.4475    0.9586    0.8718 C   0  0
   -3.5327    3.2639    1.2831 C   0  0
    4.4183    1.5831    1.2090 C   0  0
    3.3058    0.7900    1.8951 C   0  0
    2.0141    0.8250    1.0901 C   0  0
    0.4805   -4.3739    1.0770 O   0  0
   -1.7712   -0.6206    2.7185 O   0  0
   -1.2805   -3.3898    2.2817 O   0  0
   -2.1185    1.4546    0.5538 O   0  0
   -2.9938    1.4283    2.7339 O   0  0
    9.2644    1.3106    4.1179 O   0  0
    1.0192    0.0857    1.7854 O   0  0
    5.2811    3.2589    3.1777 H   0  0
    6.4153   -0.2548    0.9585 H   0  0
    7.3949    3.1389    4.4455 H   0  0
    8.5280   -0.3721    2.2276 H   0  0
   10.2750   -0.1629    6.9711 H   0  0
   11.2983    0.8879    5.8264 H   0  0
    8.3144    0.1476    5.4779 H   0  0
   -0.3056   -2.9978   -0.2261 H   0  0
    1.2921   -2.5670    0.4415 H   0  0
    0.3557   -2.2223    2.6794 H   0  0
   -1.8656   -1.2930    0.7895 H   0  0
   -0.4868    2.1989    1.5799 H   0  0
    0.0000   -0.0001    0.0000 H   0  0
   -1.1611    1.1088    3.6453 H   0  0
    0.5807   -4.6609    3.7132 H   0  0
    0.3494   -6.2497    2.9586 H   0  0
   -0.9710   -5.5048    3.8803 H   0  0
   -1.9943   -5.0049    0.3026 H   0  0
   -2.5049   -5.7096    1.8486 H   0  0
   -1.1845   -6.4548    0.9270 H   0  0
   -4.2298   -0.1076    0.9397 H   0  0
   -4.6635    1.2093   -0.1672 H   0  0
   -5.3265    1.1788    1.4783 H   0  0
   -2.6685    3.8226    1.6417 H   0  0
   -4.3975    3.5171    1.8960 H   0  0
   -3.7347    3.5476    0.2505 H   0  0
    4.5745    1.2004    0.1921 H   0  0
    4.1123    2.6312    1.0966 H   0  0
    3.1163    1.1843    2.9022 H   0  0
    3.6125   -0.2538    2.0438 H   0  0
    1.6596    1.8531    0.9648 H   0  0
    2.1570    0.3738    0.1030 H   0  0
  1  3  2  0
  1  5  1  0
  2  4  1  0
  2  5  2  0
  3  6  1  0
  4  6  2  0
  5 21  1  0
  6 29  1  0
  7  8  2  0
  8 29  1  0
  9 10  1  0
  9 24  1  0
 10 11  1  0
 10 26  1  0
 11 13  1  0
 11 25  1  0
 12 13  1  0
 12 14  1  0
 12 27  1  0
 13 30  1  0
 14 25  1  0
 14 28  1  0
 15 17  1  0
 15 18  1  0
 15 24  1  0
 15 26  1  0
 16 19  1  0
 16 20  1  0
 16 27  1  0
 16 28  1  0
 21 22  1  0
 22 23  1  0
 23 30  1  0
  1 31  1  0
  2 32  1  0
  3 33  1  0
  4 34  1  0
  7 35  1  0
  7 36  1  0
  8 37  1  0
  9 38  1  0
  9 39  1  0
 10 40  1  0
 11 41  1  0
 12 42  1  0
 13 43  1  0
 14 44  1  0
 17 45  1  0
 17 46  1  0
 17 47  1  0
 18 48  1  0
 18 49  1  0
 18 50  1  0
 19 51  1  0
 19 52  1  0
 19 53  1  0
 20 54  1  0
 20 55  1  0
 20 56  1  0
 21 57  1  0
 21 58  1  0
 22 59  1  0
 22 60  1  0
 23 61  1  0
 23 62  1  0
M  END
> <Name>
BR010349

$$$$
BR010350
  SciTegic05062102053D

 40 41  0  0  1  0            999 V2000
   -5.5426    1.3722    2.4482 C   0  0
   -4.2257    1.2368    2.8873 C   0  0
   -6.2190    0.2717    1.9217 C   0  0
   -3.5850    0.0009    2.7998 C   0  0
   -5.5783   -0.9642    1.8342 C   0  0
   -4.2613   -1.0997    2.2732 C   0  0
   -1.4240   -1.4908   -0.6420 C   0  0  1  0  0  0
   -0.7391   -0.1332   -0.8004 C   0  0  1  0  0  0
   -0.4804   -2.6337   -1.0165 C   0  0  2  0  0  0
   -0.0643   -0.0218   -2.1696 C   0  0  1  0  0  0
    0.2035   -2.3731   -2.3586 C   0  0  1  0  0  0
   -3.5718   -2.4308    2.1785 C   0  0
    0.7314    1.2714   -2.3175 C   0  0
   -2.8375   -2.6239    0.8550 C   0  0
    0.8515   -1.1032   -2.3511 O   0  0
   -1.7290    0.8812   -0.6501 O   0  0
   -1.2427   -3.8373   -1.0959 O   0  0
    1.1656   -3.4063   -2.5667 O   0  0
    1.3285    1.2888   -3.6013 O   0  0
   -1.8241   -1.6404    0.7212 O   0  0
   -6.0418    2.3343    2.5176 H   0  0
   -3.6992    2.0933    3.2982 H   0  0
   -7.2447    0.3766    1.5808 H   0  0
   -2.5586   -0.0953    3.1441 H   0  0
   -6.1131   -1.8160    1.4225 H   0  0
   -2.3429   -1.5299   -1.2405 H   0  0
   -0.0062   -0.0080    0.0071 H   0  0
    0.2643   -2.7781   -0.2236 H   0  0
   -0.8146   -0.0439   -2.9711 H   0  0
   -0.5186   -2.4258   -3.1832 H   0  0
   -2.8648   -2.5383    3.0111 H   0  0
   -4.3161   -3.2289    2.2938 H   0  0
    1.5109    1.3176   -1.5570 H   0  0
    0.0680    2.1303   -2.2170 H   0  0
   -2.3549   -3.6065    0.8393 H   0  0
   -3.5155   -2.5510   -0.0018 H   0  0
   -2.3867    0.7305   -1.3466 H   0  0
   -1.9138   -3.6926   -1.7801 H   0  0
    1.5859   -3.2219   -3.4204 H   0  0
    1.8288    2.1196   -3.6722 H   0  0
  1  2  1  0
  1  3  2  0
  2  4  2  0
  3  5  1  0
  4  6  1  0
  5  6  2  0
  6 12  1  0
  7  8  1  0
  7  9  1  0
  7 20  1  0
  8 10  1  0
  8 16  1  0
  9 11  1  0
  9 17  1  0
 10 13  1  0
 10 15  1  0
 11 15  1  0
 11 18  1  0
 12 14  1  0
 13 19  1  0
 14 20  1  0
  1 21  1  0
  2 22  1  0
  3 23  1  0
  4 24  1  0
  5 25  1  0
  7 26  1  0
  8 27  1  0
  9 28  1  0
 10 29  1  0
 11 30  1  0
 12 31  1  0
 12 32  1  0
 13 33  1  0
 13 34  1  0
 14 35  1  0
 14 36  1  0
 16 37  1  0
 17 38  1  0
 18 39  1  0
 19 40  1  0
M  END
> <Name>
BR010350

$$$$
BR010351
  SciTegic05062102053D

 40 41  0  0  1  0            999 V2000
    3.9781   -3.3339   -3.3807 C   0  0
    2.7271   -3.5071   -2.7886 C   0  0
    5.0977   -3.0870   -2.5862 C   0  0
    2.5957   -3.4332   -1.4019 C   0  0
    4.9662   -3.0131   -1.1995 C   0  0
    3.7152   -3.1863   -0.6073 C   0  0
    1.9514    0.1836    0.8896 C   0  0  1  0  0  0
    0.8918    0.6285   -0.1205 C   0  0  1  0  0  0
    1.5562    0.6052    2.3034 C   0  0  2  0  0  0
    0.5380    2.1106    0.0630 C   0  0  1  0  0  0
    1.1766    2.0855    2.3663 C   0  0  2  0  0  0
    3.5743   -3.1064    0.8860 C   0  0
   -0.6270    2.5360   -0.8266 C   0  0
    3.2818   -1.6918    1.3779 C   0  0
    0.1510    2.3791    1.4155 O   0  0
    1.4072    0.4010   -1.4301 O   0  0
    2.6319    0.3331    3.1946 O   0  0
    2.3050    2.9468    2.2268 O   0  0
   -0.8964    3.9056   -0.5907 O   0  0
    2.0502   -1.2415    0.8372 O   0  0
    4.0805   -3.3928   -4.4604 H   0  0
    1.8554   -3.7005   -3.4070 H   0  0
    6.0720   -2.9532   -3.0468 H   0  0
    1.6170   -3.5692   -0.9492 H   0  0
    5.8440   -2.8202   -0.5885 H   0  0
    2.9381    0.5738    0.6187 H   0  0
    0.0000    0.0003    0.0011 H   0  0
    0.7036   -0.0060    2.6232 H   0  0
    1.3968    2.7418   -0.2005 H   0  0
    0.7465    2.2944    3.3737 H   0  0
    2.7762   -3.7835    1.2164 H   0  0
    4.5013   -3.4623    1.3530 H   0  0
   -1.5120    1.9475   -0.5858 H   0  0
   -0.3647    2.3950   -1.8748 H   0  0
    3.1891   -1.6910    2.4687 H   0  0
    4.0712   -0.9892    1.0911 H   0  0
    2.2156    0.9314   -1.5045 H   0  0
    2.3403    0.6143    4.0763 H   0  0
    1.9664    3.8534    2.2791 H   0  0
   -1.6398    4.1539   -1.1664 H   0  0
  1  2  1  0
  1  3  2  0
  2  4  2  0
  3  5  1  0
  4  6  1  0
  5  6  2  0
  6 12  1  0
  7  8  1  0
  7  9  1  0
  7 20  1  0
  8 10  1  0
  8 16  1  0
  9 11  1  0
  9 17  1  0
 10 13  1  0
 10 15  1  0
 11 15  1  0
 11 18  1  0
 12 14  1  0
 13 19  1  0
 14 20  1  0
  1 21  1  0
  2 22  1  0
  3 23  1  0
  4 24  1  0
  5 25  1  0
  7 26  1  0
  8 27  1  0
  9 28  1  0
 10 29  1  0
 11 30  1  0
 12 31  1  0
 12 32  1  0
 13 33  1  0
 13 34  1  0
 14 35  1  0
 14 36  1  0
 16 37  1  0
 17 38  1  0
 18 39  1  0
 19 40  1  0
M  END
> <Name>
BR010351

$$$$
BR010352
  SciTegic05062102053D

 41 42  0  0  1  0            999 V2000
   -7.0275   -1.5819    5.8654 C   0  0
   -5.6446   -1.4021    5.8402 C   0  0
   -7.7036   -1.9554    4.7039 C   0  0
   -4.9376   -1.5959    4.6534 C   0  0
   -6.9967   -2.1492    3.5172 C   0  0
   -5.6137   -1.9694    3.4919 C   0  0
   -4.8680   -2.1740    2.2387 C   0  0
   -3.5491   -2.4069    2.1518 C   0  0
   -1.4240   -1.4908   -0.6420 C   0  0  1  0  0  0
   -0.7391   -0.1332   -0.8004 C   0  0  1  0  0  0
   -0.4804   -2.6337   -1.0165 C   0  0  2  0  0  0
   -0.0643   -0.0218   -2.1696 C   0  0  1  0  0  0
    0.2035   -2.3731   -2.3586 C   0  0  1  0  0  0
   -2.8375   -2.6239    0.8550 C   0  0
    0.7314    1.2714   -2.3175 C   0  0
    0.8515   -1.1032   -2.3511 O   0  0
   -1.7290    0.8812   -0.6501 O   0  0
   -1.2427   -3.8373   -1.0959 O   0  0
    1.1656   -3.4063   -2.5667 O   0  0
    1.3285    1.2888   -3.6013 O   0  0
   -1.8241   -1.6404    0.7212 O   0  0
   -7.5778   -1.4323    6.7897 H   0  0
   -5.1177   -1.1124    6.7447 H   0  0
   -8.7803   -2.0966    4.7237 H   0  0
   -3.8598   -1.4519    4.6494 H   0  0
   -7.5380   -2.4402    2.6200 H   0  0
   -5.4615   -2.1475    1.3275 H   0  0
   -2.9363   -2.4674    3.0472 H   0  0
   -2.3429   -1.5299   -1.2405 H   0  0
   -0.0062   -0.0080    0.0071 H   0  0
    0.2643   -2.7781   -0.2236 H   0  0
   -0.8146   -0.0439   -2.9711 H   0  0
   -0.5186   -2.4258   -3.1832 H   0  0
   -2.3675   -3.6124    0.8519 H   0  0
   -3.5103   -2.5503   -0.0053 H   0  0
    1.5109    1.3176   -1.5570 H   0  0
    0.0680    2.1303   -2.2170 H   0  0
   -2.3867    0.7305   -1.3466 H   0  0
   -1.9138   -3.6926   -1.7801 H   0  0
    1.5859   -3.2219   -3.4204 H   0  0
    1.8288    2.1196   -3.6722 H   0  0
  1  2  1  0
  1  3  2  0
  2  4  2  0
  3  5  1  0
  4  6  1  0
  5  6  2  0
  6  7  1  0
  7  8  2  0
  8 14  1  0
  9 10  1  0
  9 11  1  0
  9 21  1  0
 10 12  1  0
 10 17  1  0
 11 13  1  0
 11 18  1  0
 12 15  1  0
 12 16  1  0
 13 16  1  0
 13 19  1  0
 14 21  1  0
 15 20  1  0
  1 22  1  0
  2 23  1  0
  3 24  1  0
  4 25  1  0
  5 26  1  0
  7 27  1  0
  8 28  1  0
  9 29  1  0
 10 30  1  0
 11 31  1  0
 12 32  1  0
 13 33  1  0
 14 34  1  0
 14 35  1  0
 15 36  1  0
 15 37  1  0
 17 38  1  0
 18 39  1  0
 19 40  1  0
 20 41  1  0
M  END
> <Name>
BR010352

$$$$
BR010353
  SciTegic05062102053D

 41 42  0  0  1  0            999 V2000
    5.5615   -7.2992   -1.2882 C   0  0
    4.2487   -6.9712   -0.9498 C   0  0
    6.5753   -6.3513   -1.1488 C   0  0
    3.9496   -5.6953   -0.4719 C   0  0
    6.2762   -5.0754   -0.6709 C   0  0
    4.9634   -4.7474   -0.3325 C   0  0
    4.6482   -3.4003    0.1719 C   0  0
    3.5515   -3.0730    0.8729 C   0  0
    1.9514    0.1836    0.8896 C   0  0  1  0  0  0
    0.8918    0.6285   -0.1205 C   0  0  1  0  0  0
    1.5562    0.6052    2.3034 C   0  0  2  0  0  0
    0.5380    2.1106    0.0630 C   0  0  1  0  0  0
    1.1766    2.0855    2.3663 C   0  0  2  0  0  0
    3.2818   -1.6918    1.3779 C   0  0
   -0.6270    2.5360   -0.8266 C   0  0
    0.1510    2.3791    1.4155 O   0  0
    1.4072    0.4010   -1.4301 O   0  0
    2.6319    0.3331    3.1946 O   0  0
    2.3050    2.9468    2.2268 O   0  0
   -0.8964    3.9056   -0.5907 O   0  0
    2.0502   -1.2415    0.8372 O   0  0
    5.7946   -8.2929   -1.6591 H   0  0
    3.4593   -7.7095   -1.0572 H   0  0
    7.5977   -6.6068   -1.4112 H   0  0
    2.9214   -5.4545   -0.2122 H   0  0
    7.0774   -4.3475   -0.5678 H   0  0
    5.3896   -2.6328   -0.0390 H   0  0
    2.8081   -3.8251    1.1231 H   0  0
    2.9381    0.5738    0.6187 H   0  0
    0.0000    0.0003    0.0011 H   0  0
    0.7036   -0.0060    2.6232 H   0  0
    1.3968    2.7418   -0.2005 H   0  0
    0.7465    2.2944    3.3737 H   0  0
    3.1997   -1.7065    2.4692 H   0  0
    4.0671   -0.9846    1.0925 H   0  0
   -1.5120    1.9475   -0.5858 H   0  0
   -0.3647    2.3950   -1.8748 H   0  0
    2.2156    0.9314   -1.5045 H   0  0
    2.3403    0.6143    4.0763 H   0  0
    1.9664    3.8534    2.2791 H   0  0
   -1.6398    4.1539   -1.1664 H   0  0
  1  2  1  0
  1  3  2  0
  2  4  2  0
  3  5  1  0
  4  6  1  0
  5  6  2  0
  6  7  1  0
  7  8  2  0
  8 14  1  0
  9 10  1  0
  9 11  1  0
  9 21  1  0
 10 12  1  0
 10 17  1  0
 11 13  1  0
 11 18  1  0
 12 15  1  0
 12 16  1  0
 13 16  1  0
 13 19  1  0
 14 21  1  0
 15 20  1  0
  1 22  1  0
  2 23  1  0
  3 24  1  0
  4 25  1  0
  5 26  1  0
  7 27  1  0
  8 28  1  0
  9 29  1  0
 10 30  1  0
 11 31  1  0
 12 32  1  0
 13 33  1  0
 14 34  1  0
 14 35  1  0
 15 36  1  0
 15 37  1  0
 17 38  1  0
 18 39  1  0
 19 40  1  0
 20 41  1  0
M  END
> <Name>
BR010353

$$$$
BR010354
  SciTegic05062102053D

 43 44  0  0  1  0            999 V2000
   -6.8479   -2.7003    6.0172 C   0  0
   -5.7175   -3.5173    6.0325 C   0  0
   -7.2738   -2.1213    4.8218 C   0  0
   -5.0129   -3.7552    4.8525 C   0  0
   -6.5692   -2.3592    3.6417 C   0  0
   -5.4388   -3.1762    3.6570 C   0  0
   -1.4240   -1.4908   -0.6420 C   0  0  1  0  0  0
   -0.7391   -0.1332   -0.8004 C   0  0  1  0  0  0
   -0.4804   -2.6337   -1.0165 C   0  0  2  0  0  0
   -0.0643   -0.0218   -2.1696 C   0  0  1  0  0  0
    0.2035   -2.3731   -2.3586 C   0  0  1  0  0  0
   -4.6775   -3.4328    2.3811 C   0  0
    0.7314    1.2714   -2.3175 C   0  0
   -3.5774   -2.3933    2.1653 C   0  0
   -2.8375   -2.6239    0.8550 C   0  0
    0.8515   -1.1032   -2.3511 O   0  0
   -1.7290    0.8812   -0.6501 O   0  0
   -1.2427   -3.8373   -1.0959 O   0  0
    1.1656   -3.4063   -2.5667 O   0  0
    1.3285    1.2888   -3.6013 O   0  0
   -1.8241   -1.6404    0.7212 O   0  0
   -7.3972   -2.5162    6.9359 H   0  0
   -5.3863   -3.9691    6.9631 H   0  0
   -8.1545   -1.4860    4.8092 H   0  0
   -4.1331   -4.3930    4.8739 H   0  0
   -6.9084   -1.9038    2.7150 H   0  0
   -2.3429   -1.5299   -1.2405 H   0  0
   -0.0062   -0.0080    0.0071 H   0  0
    0.2643   -2.7781   -0.2236 H   0  0
   -0.8146   -0.0439   -2.9711 H   0  0
   -0.5186   -2.4258   -3.1832 H   0  0
   -5.3689   -3.4244    1.5286 H   0  0
   -4.2382   -4.4385    2.4075 H   0  0
    1.5109    1.3176   -1.5570 H   0  0
    0.0680    2.1303   -2.2170 H   0  0
   -2.8595   -2.4139    2.9957 H   0  0
   -3.9994   -1.3795    2.1701 H   0  0
   -2.3670   -3.6123    0.8407 H   0  0
   -3.5185   -2.5404    0.0020 H   0  0
   -2.3867    0.7305   -1.3466 H   0  0
   -1.9138   -3.6926   -1.7801 H   0  0
    1.5859   -3.2219   -3.4204 H   0  0
    1.8288    2.1196   -3.6722 H   0  0
  1  2  1  0
  1  3  2  0
  2  4  2  0
  3  5  1  0
  4  6  1  0
  5  6  2  0
  6 12  1  0
  7  8  1  0
  7  9  1  0
  7 21  1  0
  8 10  1  0
  8 17  1  0
  9 11  1  0
  9 18  1  0
 10 13  1  0
 10 16  1  0
 11 16  1  0
 11 19  1  0
 12 14  1  0
 13 20  1  0
 14 15  1  0
 15 21  1  0
  1 22  1  0
  2 23  1  0
  3 24  1  0
  4 25  1  0
  5 26  1  0
  7 27  1  0
  8 28  1  0
  9 29  1  0
 10 30  1  0
 11 31  1  0
 12 32  1  0
 12 33  1  0
 13 34  1  0
 13 35  1  0
 14 36  1  0
 14 37  1  0
 15 38  1  0
 15 39  1  0
 17 40  1  0
 18 41  1  0
 19 42  1  0
 20 43  1  0
M  END
> <Name>
BR010354

$$$$
BR010355
  SciTegic05062102053D

 43 44  0  0  1  0            999 V2000
    5.7523   -7.5387   -0.1872 C   0  0
    5.0064   -7.4165    0.9851 C   0  0
    6.2152   -6.3970   -0.8415 C   0  0
    4.7233   -6.1526    1.5030 C   0  0
    5.9321   -5.1332   -0.3236 C   0  0
    5.1861   -5.0110    0.8487 C   0  0
    1.9514    0.1836    0.8896 C   0  0  1  0  0  0
    0.8918    0.6285   -0.1205 C   0  0  1  0  0  0
    1.5562    0.6052    2.3034 C   0  0  2  0  0  0
    0.5380    2.1106    0.0630 C   0  0  1  0  0  0
    1.1766    2.0855    2.3663 C   0  0  2  0  0  0
    4.8802   -3.6445    1.4079 C   0  0
   -0.6270    2.5360   -0.8266 C   0  0
    3.5694   -3.0903    0.8495 C   0  0
    3.2818   -1.6918    1.3779 C   0  0
    0.1510    2.3791    1.4155 O   0  0
    1.4072    0.4010   -1.4301 O   0  0
    2.6319    0.3331    3.1946 O   0  0
    2.3050    2.9468    2.2268 O   0  0
   -0.8964    3.9056   -0.5907 O   0  0
    2.0502   -1.2415    0.8372 O   0  0
    5.9738   -8.5228   -0.5896 H   0  0
    4.6468   -8.3053    1.4953 H   0  0
    6.7970   -6.4918   -1.7536 H   0  0
    4.1412   -6.0670    2.4169 H   0  0
    6.2968   -4.2493   -0.8402 H   0  0
    2.9381    0.5738    0.6187 H   0  0
    0.0000    0.0003    0.0011 H   0  0
    0.7036   -0.0060    2.6232 H   0  0
    1.3968    2.7418   -0.2005 H   0  0
    0.7465    2.2944    3.3737 H   0  0
    5.7033   -2.9562    1.1761 H   0  0
    4.8252   -3.6961    2.5030 H   0  0
   -1.5120    1.9475   -0.5858 H   0  0
   -0.3647    2.3950   -1.8748 H   0  0
    2.7317   -3.7532    1.1031 H   0  0
    3.5987   -3.0646   -0.2479 H   0  0
    3.2019   -1.6955    2.4697 H   0  0
    4.0694   -0.9923    1.0800 H   0  0
    2.2156    0.9314   -1.5045 H   0  0
    2.3403    0.6143    4.0763 H   0  0
    1.9664    3.8534    2.2791 H   0  0
   -1.6398    4.1539   -1.1664 H   0  0
  1  2  1  0
  1  3  2  0
  2  4  2  0
  3  5  1  0
  4  6  1  0
  5  6  2  0
  6 12  1  0
  7  8  1  0
  7  9  1  0
  7 21  1  0
  8 10  1  0
  8 17  1  0
  9 11  1  0
  9 18  1  0
 10 13  1  0
 10 16  1  0
 11 16  1  0
 11 19  1  0
 12 14  1  0
 13 20  1  0
 14 15  1  0
 15 21  1  0
  1 22  1  0
  2 23  1  0
  3 24  1  0
  4 25  1  0
  5 26  1  0
  7 27  1  0
  8 28  1  0
  9 29  1  0
 10 30  1  0
 11 31  1  0
 12 32  1  0
 12 33  1  0
 13 34  1  0
 13 35  1  0
 14 36  1  0
 14 37  1  0
 15 38  1  0
 15 39  1  0
 17 40  1  0
 18 41  1  0
 19 42  1  0
 20 43  1  0
M  END
> <Name>
BR010355

$$$$
BR010356
  SciTegic05062102053D

 50 50  0  0  1  0            999 V2000
    3.1613   -7.6707    4.0658 C   0  0
    3.4323   -7.9528    2.7867 C   0  0
    8.2848   -2.1724   -6.6852 C   0  0  1  0  0  0
    7.7479   -1.6666   -8.0243 C   0  0  1  0  0  0
    9.4350   -1.2986   -6.1845 C   0  0  2  0  0  0
    8.8912   -1.4343   -9.0149 C   0  0  1  0  0  0
   10.4713   -1.0606   -7.2828 C   0  0  1  0  0  0
    3.0745   -7.0632    1.6428 C   0  0
    8.4058   -0.8151  -10.3219 C   0  0
    6.4073   -4.2315   -2.7188 C   0  0
    5.0860   -4.5670   -2.0254 C   0  0
    6.1895   -3.3000   -3.9092 C   0  0
    5.3073   -5.4714   -0.8150 C   0  0
    7.4948   -2.9955   -4.6306 C   0  0
    3.9927   -5.8436   -0.1439 C   0  0
    9.8482   -0.5349   -8.4524 O   0  0
    6.8402   -2.6408   -8.5325 O   0  0
   10.0531   -1.9593   -5.0811 O   0  0
   11.4300   -0.1285   -6.7844 O   0  0
    9.5218   -0.6247  -11.1722 O   0  0
    7.2226   -2.1419   -5.7303 O   0  0
    4.2657   -6.6944    0.9609 O   0  0
    3.4394   -8.3462    4.8671 H   0  0
    2.6522   -6.7500    4.3293 H   0  0
    3.9356   -8.8878    2.5548 H   0  0
    8.5971   -3.2210   -6.7676 H   0  0
    7.1843   -0.7401   -7.8547 H   0  0
    9.0432   -0.3452   -5.8081 H   0  0
    9.3863   -2.3832   -9.2603 H   0  0
   11.0080   -1.9873   -7.5227 H   0  0
    2.5642   -6.1523    1.9714 H   0  0
    2.4244   -7.6001    0.9450 H   0  0
    7.9345    0.1478  -10.1249 H   0  0
    7.6926   -1.4814  -10.8071 H   0  0
    7.0887   -3.7577   -2.0017 H   0  0
    6.8885   -5.1565   -3.0593 H   0  0
    4.4138   -5.0627   -2.7363 H   0  0
    4.5929   -3.6407   -1.7062 H   0  0
    5.7303   -2.3604   -3.5772 H   0  0
    5.4795   -3.7469   -4.6164 H   0  0
    5.9596   -4.9756   -0.0850 H   0  0
    5.8338   -6.3861   -1.1151 H   0  0
    7.9555   -3.9138   -5.0088 H   0  0
    8.2013   -2.4905   -3.9640 H   0  0
    3.3361   -6.3761   -0.8393 H   0  0
    3.4753   -4.9515    0.2232 H   0  0
    7.3463   -3.4612   -8.6385 H   0  0
   10.3737   -2.8107   -5.4156 H   0  0
   12.0754    0.0074   -7.4947 H   0  0
    9.1888   -0.2302  -11.9964 H   0  0
  1  2  2  0
  2  8  1  0
  3  4  1  0
  3  5  1  0
  3 21  1  0
  4  6  1  0
  4 17  1  0
  5  7  1  0
  5 18  1  0
  6  9  1  0
  6 16  1  0
  7 16  1  0
  7 19  1  0
  8 22  1  0
  9 20  1  0
 10 11  1  0
 10 12  1  0
 11 13  1  0
 12 14  1  0
 13 15  1  0
 14 21  1  0
 15 22  1  0
  1 23  1  0
  1 24  1  0
  2 25  1  0
  3 26  1  0
  4 27  1  0
  5 28  1  0
  6 29  1  0
  7 30  1  0
  8 31  1  0
  8 32  1  0
  9 33  1  0
  9 34  1  0
 10 35  1  0
 10 36  1  0
 11 37  1  0
 11 38  1  0
 12 39  1  0
 12 40  1  0
 13 41  1  0
 13 42  1  0
 14 43  1  0
 14 44  1  0
 15 45  1  0
 15 46  1  0
 17 47  1  0
 18 48  1  0
 19 49  1  0
 20 50  1  0
M  END
> <Name>
BR010356

$$$$
BR010357
  SciTegic05062102053D

 50 50  0  0  1  0            999 V2000
   -5.0035   -9.4625    5.9052 C   0  0
   -3.7108   -9.2846    5.6112 C   0  0
    3.1694   -0.3935    1.1054 C   0  0  1  0  0  0
    3.9449   -0.1959   -0.1986 C   0  0  1  0  0  0
    2.6646    0.9459    1.6384 C   0  0  2  0  0  0
    5.0002    0.9091   -0.0545 C   0  0  1  0  0  0
    3.7824    1.9883    1.6964 C   0  0  2  0  0  0
   -3.2197   -8.7167    4.3211 C   0  0
    5.6772    1.2318   -1.3839 C   0  0
    0.1706   -3.7529    2.9012 C   0  0
   -0.6330   -4.9991    2.5264 C   0  0
    0.7210   -3.0526    1.6608 C   0  0
   -1.2115   -5.6807    3.7644 C   0  0
    1.5580   -1.8352    2.0276 C   0  0
   -1.9781   -6.9452    3.4030 C   0  0
    4.4062    2.1236    0.4178 O   0  0
    4.5670   -1.4339   -0.5343 O   0  0
    2.0990    0.7562    2.9305 O   0  0
    4.7262    1.7225    2.7324 O   0  0
    6.6236    2.2622   -1.1682 O   0  0
    2.0502   -1.2415    0.8372 O   0  0
   -2.4757   -7.5371    4.5951 O   0  0
   -5.3171   -9.8791    6.8559 H   0  0
   -5.7720   -9.1903    5.1899 H   0  0
   -2.9646   -9.5759    6.3458 H   0  0
    3.7819   -0.9132    1.8497 H   0  0
    3.2355    0.0493   -0.9995 H   0  0
    1.8638    1.3030    0.9797 H   0  0
    5.7868    0.5946    0.6439 H   0  0
    3.3266    2.9777    1.9349 H   0  0
   -4.0400   -8.4623    3.6426 H   0  0
   -2.5618   -9.4374    3.8255 H   0  0
    4.9344    1.5695   -2.1063 H   0  0
    6.1870    0.3475   -1.7655 H   0  0
   -0.4674   -3.0590    3.4618 H   0  0
    0.9995   -4.0355    3.5617 H   0  0
    0.0119   -5.7033    1.9869 H   0  0
   -1.4474   -4.7205    1.8465 H   0  0
   -0.1010   -2.7433    1.0030 H   0  0
    1.3311   -3.7481    1.0709 H   0  0
   -1.8782   -4.9929    4.2997 H   0  0
   -0.4096   -5.9312    4.4702 H   0  0
    2.4105   -2.1212    2.6520 H   0  0
    0.9561   -1.0942    2.5636 H   0  0
   -1.3261   -7.6675    2.9017 H   0  0
   -2.8250   -6.7149    2.7488 H   0  0
    5.1581   -1.6544    0.2021 H   0  0
    1.7927    1.6267    3.2303 H   0  0
    5.3877    2.4296    2.6890 H   0  0
    7.0412    2.4508   -2.0261 H   0  0
  1  2  2  0
  2  8  1  0
  3  4  1  0
  3  5  1  0
  3 21  1  0
  4  6  1  0
  4 17  1  0
  5  7  1  0
  5 18  1  0
  6  9  1  0
  6 16  1  0
  7 16  1  0
  7 19  1  0
  8 22  1  0
  9 20  1  0
 10 11  1  0
 10 12  1  0
 11 13  1  0
 12 14  1  0
 13 15  1  0
 14 21  1  0
 15 22  1  0
  1 23  1  0
  1 24  1  0
  2 25  1  0
  3 26  1  0
  4 27  1  0
  5 28  1  0
  6 29  1  0
  7 30  1  0
  8 31  1  0
  8 32  1  0
  9 33  1  0
  9 34  1  0
 10 35  1  0
 10 36  1  0
 11 37  1  0
 11 38  1  0
 12 39  1  0
 12 40  1  0
 13 41  1  0
 13 42  1  0
 14 43  1  0
 14 44  1  0
 15 45  1  0
 15 46  1  0
 17 47  1  0
 18 48  1  0
 19 49  1  0
 20 50  1  0
M  END
> <Name>
BR010357

$$$$
BR010358
  SciTegic05062102053D

 56 57  0  0  1  0            999 V2000
   10.3829   -6.3134    3.6781 C   0  0
   10.0946   -5.0147    4.0975 C   0  0
    9.7925   -6.8196    2.5201 C   0  0
    9.2159   -4.2222    3.3590 C   0  0
    8.9137   -6.0270    1.7816 C   0  0
    8.6254   -4.7284    2.2011 C   0  0
   -3.0167   -1.4272    1.4892 C   0  0  1  0  0  0
   -3.7564   -0.2173    0.9182 C   0  0  1  0  0  0
   -3.8763   -2.6890    1.4105 C   0  0  2  0  0  0
   -5.1611   -0.1077    1.5160 C   0  0  1  0  0  0
   -5.2833   -2.4381    1.9528 C   0  0  1  0  0  0
    7.6798   -3.8764    1.4063 C   0  0
   -5.9727    1.0171    0.8808 C   0  0
    1.5694   -2.9939    1.5889 C   0  0
    2.9593   -2.7424    1.0022 C   0  0
    0.5003   -2.1936    0.8481 C   0  0
    4.0239   -3.5682    1.7211 C   0  0
   -0.8802   -2.4054    1.4533 C   0  0
    5.4159   -3.2922    1.1702 C   0  0
   -5.8804   -1.3224    1.2961 O   0  0
   -2.9951    0.9490    1.2208 O   0  0
   -3.2443   -3.7112    2.1798 O   0  0
   -6.0591   -3.6119    1.7150 O   0  0
   -7.2552    1.0415    1.4803 O   0  0
   -1.8212   -1.6261    0.7327 O   0  0
    6.3579   -4.0767    1.8885 O   0  0
   11.0682   -6.9299    4.2525 H   0  0
   10.5551   -4.6201    4.9986 H   0  0
   10.0176   -7.8302    2.1926 H   0  0
    8.9970   -3.2116    3.6935 H   0  0
    8.4583   -6.4298    0.8808 H   0  0
   -2.7010   -1.2325    2.5218 H   0  0
   -3.8037   -0.3121   -0.1743 H   0  0
   -3.9185   -3.0481    0.3744 H   0  0
   -5.1057    0.0905    2.5945 H   0  0
   -5.2615   -2.2729    3.0375 H   0  0
    7.9367   -2.8156    1.4982 H   0  0
    7.7188   -4.1412    0.3442 H   0  0
   -6.0787    0.8407   -0.1897 H   0  0
   -5.4781    1.9737    1.0488 H   0  0
    1.3338   -4.0635    1.5303 H   0  0
    1.5639   -2.7193    2.6508 H   0  0
    3.2045   -1.6765    1.0830 H   0  0
    2.9586   -2.9939   -0.0654 H   0  0
    0.4797   -2.4773   -0.2116 H   0  0
    0.7449   -1.1242    0.8672 H   0  0
    3.8020   -4.6386    1.6263 H   0  0
    4.0096   -3.3530    2.7969 H   0  0
   -0.8993   -2.0919    2.5020 H   0  0
   -1.1775   -3.4572    1.3901 H   0  0
    5.6804   -2.2365    1.2880 H   0  0
    5.4764   -3.5592    0.1104 H   0  0
   -2.9313    0.9940    2.1874 H   0  0
   -3.1878   -3.3763    3.0876 H   0  0
   -6.9445   -3.4313    2.0655 H   0  0
   -7.7528    1.7640    1.0608 H   0  0
  1  2  2  0
  1  3  1  0
  2  4  1  0
  3  5  2  0
  4  6  2  0
  5  6  1  0
  6 12  1  0
  7  8  1  0
  7  9  1  0
  7 25  1  0
  8 10  1  0
  8 21  1  0
  9 11  1  0
  9 22  1  0
 10 13  1  0
 10 20  1  0
 11 20  1  0
 11 23  1  0
 12 26  1  0
 13 24  1  0
 14 15  1  0
 14 16  1  0
 15 17  1  0
 16 18  1  0
 17 19  1  0
 18 25  1  0
 19 26  1  0
  1 27  1  0
  2 28  1  0
  3 29  1  0
  4 30  1  0
  5 31  1  0
  7 32  1  0
  8 33  1  0
  9 34  1  0
 10 35  1  0
 11 36  1  0
 12 37  1  0
 12 38  1  0
 13 39  1  0
 13 40  1  0
 14 41  1  0
 14 42  1  0
 15 43  1  0
 15 44  1  0
 16 45  1  0
 16 46  1  0
 17 47  1  0
 17 48  1  0
 18 49  1  0
 18 50  1  0
 19 51  1  0
 19 52  1  0
 21 53  1  0
 22 54  1  0
 23 55  1  0
 24 56  1  0
M  END
> <Name>
BR010358

$$$$
BR010359
  SciTegic05062102053D

 56 57  0  0  1  0            999 V2000
   10.4712   -8.7135   -6.4323 C   0  0
    9.2674   -9.3131   -6.0623 C   0  0
   11.0550   -7.7532   -5.6060 C   0  0
    8.6472   -8.9523   -4.8661 C   0  0
   10.4349   -7.3924   -4.4098 C   0  0
    9.2310   -7.9919   -4.0398 C   0  0
    0.8296   -0.5480    0.5386 C   0  0  1  0  0  0
   -0.0581   -0.5726    1.7846 C   0  0  1  0  0  0
    1.1733    0.8892    0.1523 C   0  0  2  0  0  0
   -1.2483    0.3849    1.6369 C   0  0  1  0  0  0
   -0.0758    1.7690    0.0803 C   0  0  2  0  0  0
    8.5643   -7.6031   -2.7530 C   0  0
   -2.0584    0.4951    2.9258 C   0  0
    4.4018   -3.2947   -1.2497 C   0  0
    5.3473   -4.4462   -0.9044 C   0  0
    3.6686   -2.7868   -0.0101 C   0  0
    6.1054   -4.9319   -2.1379 C   0  0
    2.6937   -1.6690   -0.3524 C   0  0
    7.0180   -6.1055   -1.8104 C   0  0
   -0.8028    1.7060    1.3090 O   0  0
   -0.5180   -1.9088    1.9727 O   0  0
    1.8517    0.8918   -1.0987 O   0  0
   -0.8945    1.4667   -1.0479 O   0  0
   -3.1254    1.4003    2.7105 O   0  0
    2.0369   -1.2540    0.8343 O   0  0
    7.6800   -6.5178   -2.9981 O   0  0
   10.9546   -8.9956   -7.3631 H   0  0
    8.8132  -10.0616   -6.7050 H   0  0
   11.9928   -7.2870   -5.8932 H   0  0
    7.7093   -9.4245   -4.5860 H   0  0
   10.8970   -6.6432   -3.7724 H   0  0
    0.3533   -1.0805   -0.2914 H   0  0
    0.5492   -0.3025    2.6581 H   0  0
    1.8649    1.2946    0.9006 H   0  0
   -1.9291    0.0269    0.8535 H   0  0
    0.2488    2.8286   -0.0439 H   0  0
    7.9944   -8.4415   -2.3381 H   0  0
    9.3074   -7.2998   -2.0076 H   0  0
   -1.4259    0.8679    3.7310 H   0  0
   -2.4618   -0.4806    3.1955 H   0  0
    4.9720   -2.4737   -1.7011 H   0  0
    3.6719   -3.6303   -1.9965 H   0  0
    4.7733   -5.2765   -0.4754 H   0  0
    6.0621   -4.1182   -0.1399 H   0  0
    4.3881   -2.4256    0.7354 H   0  0
    3.1242   -3.6081    0.4725 H   0  0
    6.7029   -4.1152   -2.5622 H   0  0
    5.4007   -5.2283   -2.9249 H   0  0
    1.9383   -2.0143   -1.0655 H   0  0
    3.2196   -0.8086   -0.7787 H   0  0
    6.4423   -6.9513   -1.4213 H   0  0
    7.7737   -5.8184   -1.0723 H   0  0
   -1.0167   -2.1439    1.1750 H   0  0
    2.0504    1.8187   -1.3053 H   0  0
   -1.6523    2.0696   -1.0066 H   0  0
   -3.6263    1.4546    3.5423 H   0  0
  1  2  2  0
  1  3  1  0
  2  4  1  0
  3  5  2  0
  4  6  2  0
  5  6  1  0
  6 12  1  0
  7  8  1  0
  7  9  1  0
  7 25  1  0
  8 10  1  0
  8 21  1  0
  9 11  1  0
  9 22  1  0
 10 13  1  0
 10 20  1  0
 11 20  1  0
 11 23  1  0
 12 26  1  0
 13 24  1  0
 14 15  1  0
 14 16  1  0
 15 17  1  0
 16 18  1  0
 17 19  1  0
 18 25  1  0
 19 26  1  0
  1 27  1  0
  2 28  1  0
  3 29  1  0
  4 30  1  0
  5 31  1  0
  7 32  1  0
  8 33  1  0
  9 34  1  0
 10 35  1  0
 11 36  1  0
 12 37  1  0
 12 38  1  0
 13 39  1  0
 13 40  1  0
 14 41  1  0
 14 42  1  0
 15 43  1  0
 15 44  1  0
 16 45  1  0
 16 46  1  0
 17 47  1  0
 17 48  1  0
 18 49  1  0
 18 50  1  0
 19 51  1  0
 19 52  1  0
 21 53  1  0
 22 54  1  0
 23 55  1  0
 24 56  1  0
M  END
> <Name>
BR010359

$$$$
BR010360
  SciTegic05062102053D

 64 65  0  0  1  0            999 V2000
    0.7965  -14.5301    0.4567 C   0  0
    1.9059  -13.8461    0.9538 C   0  0
   -0.6017  -13.4688    2.1167 C   0  0
   -0.4573  -14.3414    1.0381 C   0  0
    1.7614  -12.9735    2.0324 C   0  0
    0.5076  -12.7849    2.6139 C   0  0
   -1.8195  -17.5796    0.5363 C   0  0
   -1.8659  -16.4034    1.1721 C   0  0
    9.8742  -12.8271    9.2634 C   0  0  1  0  0  0
   10.6461  -13.9781    9.9088 C   0  0  1  0  0  0
   10.7361  -11.5681    9.1672 C   0  0  2  0  0  0
   11.3127  -13.5232   11.2093 C   0  0  1  0  0  0
   11.4219  -11.2607   10.4983 C   0  0  1  0  0  0
    0.5102  -12.4890    4.9736 C   0  0
   -1.6439  -15.0707    0.5051 C   0  0
   12.1910  -14.6113   11.8192 C   0  0
    5.8305  -13.1404    4.6556 C   0  0
    6.5380  -12.3763    5.7758 C   0  0
    4.6692  -12.3330    4.0796 C   0  0
    7.7200  -13.1694    6.3291 C   0  0
    3.9330  -13.1041    2.9931 C   0  0
    8.4042  -12.4336    7.4726 C   0  0
   12.1528  -12.3953   10.9577 O   0  0
    9.7274  -15.0371   10.1653 O   0  0
    9.8948  -10.4753    8.8010 O   0  0
   12.3111  -10.1644   10.2889 O   0  0
   12.7747  -14.1066   13.0064 O   0  0
    0.3543  -11.9359    3.6682 O   0  0
    2.8596  -12.3075    2.5116 O   0  0
    9.4792  -13.2265    7.9499 O   0  0
    0.9181  -15.2066   -0.3850 H   0  0
    2.8796  -13.9980    0.4964 H   0  0
   -1.5781  -13.3196    2.5715 H   0  0
   -1.9862  -18.5144    1.0599 H   0  0
   -1.6131  -17.6211   -0.5275 H   0  0
   -2.0818  -16.3978    2.2377 H   0  0
    8.9487  -12.6265    9.8176 H   0  0
   11.3940  -14.3490    9.1961 H   0  0
   11.4776  -11.6834    8.3666 H   0  0
   10.5544  -13.2510   11.9554 H   0  0
   10.6894  -10.9497   11.2540 H   0  0
    0.3626  -11.7063    5.7217 H   0  0
    1.5108  -12.9175    5.0717 H   0  0
   -0.2360  -13.2738    5.1186 H   0  0
   -2.5572  -14.4663    0.6370 H   0  0
   -1.5488  -15.1981   -0.5868 H   0  0
   12.9796  -14.8885   11.1196 H   0  0
   11.5871  -15.4866   12.0585 H   0  0
    6.5476  -13.3718    3.8586 H   0  0
    5.4570  -14.0965    5.0422 H   0  0
    5.8262  -12.1663    6.5833 H   0  0
    6.8903  -11.4096    5.3958 H   0  0
    5.0340  -11.3837    3.6675 H   0  0
    3.9631  -12.0626    4.8747 H   0  0
    8.4511  -13.3648    5.5346 H   0  0
    7.3865  -14.1545    6.6788 H   0  0
    3.5226  -14.0391    3.3876 H   0  0
    4.6002  -13.3328    2.1557 H   0  0
    7.7067  -12.2598    8.2982 H   0  0
    8.8039  -11.4722    7.1347 H   0  0
    9.0540  -14.6794   10.7644 H   0  0
    9.2277  -10.3962    9.4998 H   0  0
   12.7339   -9.9870   11.1428 H   0  0
   13.3283  -14.8155   13.3761 H   0  0
  1  2  2  0
  1  4  1  0
  2  5  1  0
  3  4  2  0
  3  6  1  0
  4 15  1  0
  5  6  2  0
  5 29  1  0
  6 28  1  0
  7  8  2  0
  8 15  1  0
  9 10  1  0
  9 11  1  0
  9 30  1  0
 10 12  1  0
 10 24  1  0
 11 13  1  0
 11 25  1  0
 12 16  1  0
 12 23  1  0
 13 23  1  0
 13 26  1  0
 14 28  1  0
 16 27  1  0
 17 18  1  0
 17 19  1  0
 18 20  1  0
 19 21  1  0
 20 22  1  0
 21 29  1  0
 22 30  1  0
  1 31  1  0
  2 32  1  0
  3 33  1  0
  7 34  1  0
  7 35  1  0
  8 36  1  0
  9 37  1  0
 10 38  1  0
 11 39  1  0
 12 40  1  0
 13 41  1  0
 14 42  1  0
 14 43  1  0
 14 44  1  0
 15 45  1  0
 15 46  1  0
 16 47  1  0
 16 48  1  0
 17 49  1  0
 17 50  1  0
 18 51  1  0
 18 52  1  0
 19 53  1  0
 19 54  1  0
 20 55  1  0
 20 56  1  0
 21 57  1  0
 21 58  1  0
 22 59  1  0
 22 60  1  0
 24 61  1  0
 25 62  1  0
 26 63  1  0
 27 64  1  0
M  END
> <Name>
BR010360

$$$$
BR010361
  SciTegic05062102053D

 64 65  0  0  1  0            999 V2000
    0.6782    1.6634   11.9236 C   0  0
    1.0983    0.7914   10.9193 C   0  0
   -1.5762    0.8207   11.7122 C   0  0
   -0.6591    1.6780   12.3201 C   0  0
    0.1812   -0.0660   10.3114 C   0  0
   -1.1561   -0.0513   10.7079 C   0  0
   -0.9724    5.1097   13.1677 C   0  0
   -1.5598    3.9457   12.8682 C   0  0
    1.4419   -1.7327   -0.3550 C   0  0  1  0  0  0
    1.7262   -0.7384   -1.4826 C   0  0  1  0  0  0
    2.0207   -3.1057   -0.6910 C   0  0  2  0  0  0
    1.3286   -1.3180   -2.8469 C   0  0  1  0  0  0
    1.6040   -3.5679   -2.0882 C   0  0  2  0  0  0
   -2.7411   -0.3916    8.9678 C   0  0
   -1.1079    2.6085   13.3957 C   0  0
    1.7473   -0.4093   -3.9995 C   0  0
    1.5017   -0.6444    5.6868 C   0  0
    1.2037   -1.5400    4.4833 C   0  0
    0.9245   -1.2315    6.9729 C   0  0
    1.8097   -0.9701    3.2026 C   0  0
    1.1799   -0.3248    8.1686 C   0  0
    1.4821   -1.8344    1.9931 C   0  0
    1.9569   -2.5864   -3.0651 O   0  0
    0.9894    0.4529   -1.2170 O   0  0
    1.5971   -4.0482    0.2875 O   0  0
    0.2255   -3.9279   -2.1577 O   0  0
    1.3561   -1.0173   -5.2166 O   0  0
   -2.0611   -0.8834   10.1210 O   0  0
    0.6069   -0.9180    9.3256 O   0  0
    2.0585   -1.2449    0.8389 O   0  0
    1.3999    2.3266   12.3927 H   0  0
    2.1414    0.7855   10.6150 H   0  0
   -2.6191    0.8297   12.0199 H   0  0
   -1.3342    6.0484   12.7630 H   0  0
   -0.1139    5.1374   13.8298 H   0  0
   -2.4225    3.9549   12.2065 H   0  0
    0.3682   -1.7928   -0.1482 H   0  0
    2.7932   -0.4812   -1.4680 H   0  0
    3.1142   -3.0453   -0.6355 H   0  0
    0.2389   -1.4381   -2.9058 H   0  0
    2.1808   -4.4888   -2.3390 H   0  0
   -3.4328   -1.1531    8.5994 H   0  0
   -2.0120   -0.1408    8.1932 H   0  0
   -3.3020    0.5052    9.2414 H   0  0
   -1.9435    2.1650   13.9631 H   0  0
   -0.3039    2.7403   14.1398 H   0  0
    2.8290   -0.2768   -3.9937 H   0  0
    1.2568    0.5593   -3.9060 H   0  0
    2.5864   -0.5216    5.7938 H   0  0
    1.0787    0.3530    5.5159 H   0  0
    0.1185   -1.6429    4.3621 H   0  0
    1.6055   -2.5444    4.6641 H   0  0
    1.3587   -2.2202    7.1676 H   0  0
   -0.1552   -1.3945    6.8651 H   0  0
    2.8990   -0.8851    3.3033 H   0  0
    1.4439    0.0499    3.0302 H   0  0
    0.7216    0.6580    8.0185 H   0  0
    2.2536   -0.1954    8.3388 H   0  0
    0.3999   -1.9043    1.8445 H   0  0
    1.8921   -2.8425    2.1109 H   0  0
    0.0538    0.1991   -1.1930 H   0  0
    1.9848   -4.9017    0.0374 H   0  0
    0.0598   -4.2039   -3.0720 H   0  0
    1.6322   -0.4226   -5.9349 H   0  0
  1  2  2  0
  1  4  1  0
  2  5  1  0
  3  4  2  0
  3  6  1  0
  4 15  1  0
  5  6  2  0
  5 29  1  0
  6 28  1  0
  7  8  2  0
  8 15  1  0
  9 10  1  0
  9 11  1  0
  9 30  1  0
 10 12  1  0
 10 24  1  0
 11 13  1  0
 11 25  1  0
 12 16  1  0
 12 23  1  0
 13 23  1  0
 13 26  1  0
 14 28  1  0
 16 27  1  0
 17 18  1  0
 17 19  1  0
 18 20  1  0
 19 21  1  0
 20 22  1  0
 21 29  1  0
 22 30  1  0
  1 31  1  0
  2 32  1  0
  3 33  1  0
  7 34  1  0
  7 35  1  0
  8 36  1  0
  9 37  1  0
 10 38  1  0
 11 39  1  0
 12 40  1  0
 13 41  1  0
 14 42  1  0
 14 43  1  0
 14 44  1  0
 15 45  1  0
 15 46  1  0
 16 47  1  0
 16 48  1  0
 17 49  1  0
 17 50  1  0
 18 51  1  0
 18 52  1  0
 19 53  1  0
 19 54  1  0
 20 55  1  0
 20 56  1  0
 21 57  1  0
 21 58  1  0
 22 59  1  0
 22 60  1  0
 24 61  1  0
 25 62  1  0
 26 63  1  0
 27 64  1  0
M  END
> <Name>
BR010361

$$$$
BR010362
  SciTegic05062102053D

 55 56  0  0  1  0            999 V2000
    5.2830   -1.0954   10.6870 C   0  0
    5.9424   -2.2340   11.1499 C   0  0
    5.1737   -0.2410   12.9442 C   0  0
    4.8987   -0.0988   11.5842 C   0  0
    6.2174   -2.3762   12.5100 C   0  0
    5.8331   -1.3796   13.4072 C   0  0
    1.9463    1.0257    9.9679 C   0  0
    2.6965    0.9711   11.0742 C   0  0
    4.3160   -4.1679   16.2455 C   0  0  1  0  0  0
    2.9301   -3.6154   15.9123 C   0  0  1  0  0  0
    4.2964   -4.9600   17.5529 C   0  0  2  0  0  0
    2.3273   -2.8957   17.1211 C   0  0  1  0  0  0
    3.5930   -4.1811   18.6644 C   0  0  1  0  0  0
    7.3387   -0.9888   15.2061 C   0  0
    4.1959    1.1198   11.0890 C   0  0
    0.8954   -2.4360   16.8644 C   0  0
    6.5928   -5.7117   13.8232 C   0  0
    6.2286   -4.7461   12.7075 C   0  0
    6.1357   -5.2090   15.1836 C   0  0
    2.2917   -3.7769   18.2451 O   0  0
    3.0651   -2.7160   14.8149 O   0  0
    5.6447   -5.2257   17.9369 O   0  0
    3.4911   -5.0378   19.8011 O   0  0
    0.4126   -1.7933   18.0300 O   0  0
    6.0955   -1.5076   14.7378 O   0  0
    6.8659   -3.5000   12.9521 O   0  0
    4.7288   -5.0280   15.1821 O   0  0
    5.0743   -0.9924    9.6255 H   0  0
    6.2385   -3.0066   10.4457 H   0  0
    4.8757    0.5347   13.6456 H   0  0
    0.8686    0.9129   10.0072 H   0  0
    2.4069    1.1870    8.9994 H   0  0
    2.2016    0.8146   12.0296 H   0  0
    5.0527   -3.3560   16.2908 H   0  0
    2.2852   -4.4430   15.5895 H   0  0
    3.8115   -5.9314   17.3937 H   0  0
    2.9209   -2.0077   17.3754 H   0  0
    4.1839   -3.3064   18.9643 H   0  0
    7.4217   -1.1557   16.2828 H   0  0
    7.3940    0.0805   14.9870 H   0  0
    8.1546   -1.5059   14.6956 H   0  0
    4.4466    1.9901   11.7186 H   0  0
    4.5660    1.3862   10.0842 H   0  0
    0.2637   -3.2951   16.6387 H   0  0
    0.8736   -1.7342   16.0307 H   0  0
    6.1580   -6.6993   13.6228 H   0  0
    7.6767   -5.8840   13.8298 H   0  0
    6.5654   -5.1250   11.7373 H   0  0
    5.1468   -4.5826   12.6702 H   0  0
    6.5991   -4.2460   15.4190 H   0  0
    6.3935   -5.9173   15.9776 H   0  0
    3.6680   -2.0143   15.1056 H   0  0
    6.0728   -4.3636   18.0507 H   0  0
    3.0435   -4.5254   20.4915 H   0  0
   -0.4986   -1.5099   17.8431 H   0  0
  1  2  2  0
  1  4  1  0
  2  5  1  0
  3  4  2  0
  3  6  1  0
  4 15  1  0
  5  6  2  0
  5 26  1  0
  6 25  1  0
  7  8  2  0
  8 15  1  0
  9 10  1  0
  9 11  1  0
  9 27  1  0
 10 12  1  0
 10 21  1  0
 11 13  1  0
 11 22  1  0
 12 16  1  0
 12 20  1  0
 13 20  1  0
 13 23  1  0
 14 25  1  0
 16 24  1  0
 17 18  1  0
 17 19  1  0
 18 26  1  0
 19 27  1  0
  1 28  1  0
  2 29  1  0
  3 30  1  0
  7 31  1  0
  7 32  1  0
  8 33  1  0
  9 34  1  0
 10 35  1  0
 11 36  1  0
 12 37  1  0
 13 38  1  0
 14 39  1  0
 14 40  1  0
 14 41  1  0
 15 42  1  0
 15 43  1  0
 16 44  1  0
 16 45  1  0
 17 46  1  0
 17 47  1  0
 18 48  1  0
 18 49  1  0
 19 50  1  0
 19 51  1  0
 21 52  1  0
 22 53  1  0
 23 54  1  0
 24 55  1  0
M  END
> <Name>
BR010362

$$$$
BR010363
  SciTegic05062102053D

 55 56  0  0  1  0            999 V2000
   -0.5811   -4.1010    7.3283 C   0  0
   -0.0861   -3.0148    6.6067 C   0  0
    0.7450   -5.6026    5.9778 C   0  0
   -0.1655   -5.3949    7.0139 C   0  0
    0.8243   -3.2225    5.5705 C   0  0
    1.2399   -4.5164    5.2561 C   0  0
   -3.1325   -7.1664    7.8214 C   0  0
   -1.9507   -7.1368    7.1951 C   0  0
    0.8256   -3.9025    1.0627 C   0  0  1  0  0  0
   -0.3390   -4.8927    1.1257 C   0  0  1  0  0  0
    1.2840   -3.7035   -0.3807 C   0  0  2  0  0  0
   -0.0222   -6.1726    0.3404 C   0  0  1  0  0  0
    1.5250   -5.0391   -1.0861 C   0  0  2  0  0  0
    3.5126   -4.7251    4.5876 C   0  0
   -0.6927   -6.5561    7.7871 C   0  0
   -1.2264   -7.1068    0.2573 C   0  0
    0.9924   -0.7602    2.9437 C   0  0
    0.3457   -1.3483    4.1870 C   0  0
    1.4720   -1.8396    1.9861 C   0  0
    0.3611   -5.8643   -1.0047 O   0  0
   -0.5834   -5.2003    2.4961 O   0  0
    2.4699   -2.9168   -0.3946 O   0  0
    2.6939   -5.7056   -0.6126 O   0  0
   -0.8566   -8.2522   -0.4880 O   0  0
    2.1280   -4.7317    4.2458 O   0  0
    1.3031   -2.1465    4.8690 O   0  0
    0.3784   -2.6504    1.5878 O   0  0
   -1.2887   -3.9296    8.1350 H   0  0
   -0.4143   -2.0097    6.8566 H   0  0
    1.0710   -6.6102    5.7310 H   0  0
   -4.0117   -7.5957    7.3539 H   0  0
   -3.2347   -6.7580    8.8208 H   0  0
   -1.8820   -7.5609    6.1963 H   0  0
    1.6524   -4.2301    1.7017 H   0  0
   -1.2392   -4.4073    0.7269 H   0  0
    0.5110   -3.1399   -0.9166 H   0  0
    0.7882   -6.7282    0.8302 H   0  0
    1.6973   -4.8371   -2.1691 H   0  0
    4.1108   -4.9087    3.6917 H   0  0
    3.7083   -5.4990    5.3341 H   0  0
    3.7718   -3.7480    5.0021 H   0  0
    0.0628   -7.3583    7.8381 H   0  0
   -0.8611   -6.2641    8.8377 H   0  0
   -2.0534   -6.6028   -0.2422 H   0  0
   -1.5307   -7.4105    1.2587 H   0  0
    0.2870   -0.0921    2.4330 H   0  0
    1.8297   -0.1106    3.2292 H   0  0
    0.0074   -0.5567    4.8631 H   0  0
   -0.5084   -1.9795    3.9216 H   0  0
    2.2129   -2.4858    2.4667 H   0  0
    1.9258   -1.4045    1.0898 H   0  0
    0.2347   -5.5897    2.8416 H   0  0
    2.7252   -2.8153   -1.3251 H   0  0
    2.7606   -6.5323   -1.1142 H   0  0
   -1.6368   -8.8314   -0.5277 H   0  0
  1  2  2  0
  1  4  1  0
  2  5  1  0
  3  4  2  0
  3  6  1  0
  4 15  1  0
  5  6  2  0
  5 26  1  0
  6 25  1  0
  7  8  2  0
  8 15  1  0
  9 10  1  0
  9 11  1  0
  9 27  1  0
 10 12  1  0
 10 21  1  0
 11 13  1  0
 11 22  1  0
 12 16  1  0
 12 20  1  0
 13 20  1  0
 13 23  1  0
 14 25  1  0
 16 24  1  0
 17 18  1  0
 17 19  1  0
 18 26  1  0
 19 27  1  0
  1 28  1  0
  2 29  1  0
  3 30  1  0
  7 31  1  0
  7 32  1  0
  8 33  1  0
  9 34  1  0
 10 35  1  0
 11 36  1  0
 12 37  1  0
 13 38  1  0
 14 39  1  0
 14 40  1  0
 14 41  1  0
 15 42  1  0
 15 43  1  0
 16 44  1  0
 16 45  1  0
 17 46  1  0
 17 47  1  0
 18 48  1  0
 18 49  1  0
 19 50  1  0
 19 51  1  0
 21 52  1  0
 22 53  1  0
 23 54  1  0
 24 55  1  0
M  END
> <Name>
BR010363

$$$$
BR010364
  SciTegic05062102053D

 48 49  0  0  0  0            999 V2000
    1.4376   -0.9413    5.2580 C   0  0
   -0.3223   -2.3752    6.0850 C   0  0
    1.5806   -0.3840    6.5287 C   0  0
   -0.1792   -1.8180    7.3557 C   0  0
    0.4861   -1.9369    5.0362 C   0  0
    0.7723   -0.8223    7.5775 C   0  0
    0.1919    1.4610   10.2978 C   0  0
    0.1632    0.8205    9.1272 C   0  0
   -2.4009   -2.4054   -0.3384 C   0  0  1  0  0  0
   -3.7154   -1.7446   -0.7540 C   0  0  1  0  0  0
   -1.4176   -2.4649   -1.5075 C   0  0  2  0  0  0
   -4.2503   -2.3652   -2.0468 C   0  0  1  0  0  0
   -2.0842   -3.0173   -2.7673 C   0  0  1  0  0  0
    0.3317   -2.5399    3.6628 C   0  0
   -5.4974   -1.6501   -2.5575 C   0  0
   -0.6895   -1.7711    2.8240 C   0  0
   -0.8802   -2.4054    1.4533 C   0  0
   -3.2626   -2.2762   -3.0752 O   0  0
   -4.6520   -1.9194    0.3059 O   0  0
   -0.3286   -3.3085   -1.1355 O   0  0
   -1.1495   -2.9080   -3.8401 O   0  0
   -5.9177   -2.2772   -3.7554 O   0  0
    0.9129   -0.2793    8.8176 O   0  0
   -1.8241   -1.6404    0.7212 O   0  0
    2.0715   -0.5937    4.4467 H   0  0
   -1.0664   -3.1505    5.9213 H   0  0
    2.3239    0.3911    6.6953 H   0  0
   -0.8116   -2.1639    8.1685 H   0  0
   -0.4361    2.3291   10.4639 H   0  0
    0.8368    1.1333   11.1053 H   0  0
   -0.4634    1.1136    8.2978 H   0  0
   -2.5862   -3.4075    0.0684 H   0  0
   -3.5481   -0.6670   -0.8786 H   0  0
   -1.0002   -1.4675   -1.6954 H   0  0
   -4.5134   -3.4193   -1.8872 H   0  0
   -2.3253   -4.0813   -2.6487 H   0  0
    0.0248   -3.5900    3.7512 H   0  0
    1.3025   -2.5481    3.1505 H   0  0
   -5.2696   -0.6035   -2.7594 H   0  0
   -6.2944   -1.7169   -1.8169 H   0  0
   -0.3774   -0.7259    2.6997 H   0  0
   -1.6571   -1.7268    3.3411 H   0  0
    0.0619   -2.4217    0.8959 H   0  0
   -1.2579   -3.4287    1.5457 H   0  0
   -4.7567   -2.8759    0.4270 H   0  0
   -0.7086   -4.1800   -0.9467 H   0  0
   -1.5916   -3.2628   -4.6263 H   0  0
   -6.7114   -1.8058   -4.0611 H   0  0
  1  3  2  0
  1  5  1  0
  2  4  1  0
  2  5  2  0
  3  6  1  0
  4  6  2  0
  5 14  1  0
  6 23  1  0
  7  8  2  0
  8 23  1  0
  9 10  1  0
  9 11  1  0
  9 24  1  0
 10 12  1  0
 10 19  1  0
 11 13  1  0
 11 20  1  0
 12 15  1  0
 12 18  1  0
 13 18  1  0
 13 21  1  0
 14 16  1  0
 15 22  1  0
 16 17  1  0
 17 24  1  0
  1 25  1  0
  2 26  1  0
  3 27  1  0
  4 28  1  0
  7 29  1  0
  7 30  1  0
  8 31  1  0
  9 32  1  0
 10 33  1  0
 11 34  1  0
 12 35  1  0
 13 36  1  0
 14 37  1  0
 14 38  1  0
 15 39  1  0
 15 40  1  0
 16 41  1  0
 16 42  1  0
 17 43  1  0
 17 44  1  0
 19 45  1  0
 20 46  1  0
 21 47  1  0
 22 48  1  0
M  END
> <Name>
BR010364

$$$$
BR010365
  SciTegic05062102053D

 48 49  0  0  1  0            999 V2000
    5.0271   -5.7025   -0.8793 C   0  0
    2.8877   -6.0490   -1.9470 C   0  0
    5.2192   -7.0826   -0.8165 C   0  0
    3.0798   -7.4292   -1.8842 C   0  0
    3.8613   -5.1857   -1.4446 C   0  0
    4.2457   -7.9460   -1.3189 C   0  0
    4.1012  -11.2700    0.0524 C   0  0
    3.9887   -9.9555   -0.1496 C   0  0
    1.3692   -0.0001    0.6406 C   0  0  1  0  0  0
    0.3186    0.1506    1.7427 C   0  0  1  0  0  0
    2.3825    1.1410    0.7049 C   0  0  2  0  0  0
   -0.2685    1.5684    1.7595 C   0  0  1  0  0  0
    1.6938    2.5053    0.7669 C   0  0  2  0  0  0
    3.6537   -3.6939   -1.5132 C   0  0
   -1.2013    1.7883    2.9474 C   0  0
    2.9450   -3.1679   -0.2648 C   0  0
    2.6937   -1.6690   -0.3524 C   0  0
    0.7702    2.5497    1.8565 O   0  0
   -0.7096   -0.8083    1.5065 O   0  0
    3.2419    1.0728   -0.4274 O   0  0
    1.0863    2.8690   -0.4714 O   0  0
   -1.6894    3.1162    2.8963 O   0  0
    4.4339   -9.2926   -1.2586 O   0  0
    2.0502   -1.2415    0.8372 O   0  0
    5.7908   -5.0374   -0.4854 H   0  0
    1.9761   -5.6552   -2.3891 H   0  0
    6.1298   -7.4792   -0.3751 H   0  0
    2.3180   -8.0963   -2.2775 H   0  0
    3.7208  -11.7199    0.9626 H   0  0
    4.5705  -11.9161   -0.6810 H   0  0
    3.5292   -9.2772    0.5542 H   0  0
    0.8962   -0.0577   -0.3454 H   0  0
    0.7816   -0.0876    2.7090 H   0  0
    3.0051    1.0035    1.5971 H   0  0
   -0.8534    1.7484    0.8480 H   0  0
    2.4689    3.2798    0.9744 H   0  0
    3.0682   -3.4416   -2.4068 H   0  0
    4.6218   -3.1900   -1.6308 H   0  0
   -0.6567    1.6397    3.8795 H   0  0
   -2.0392    1.0936    2.8953 H   0  0
    3.5367   -3.3846    0.6343 H   0  0
    1.9892   -3.6879   -0.1169 H   0  0
    3.6356   -1.1204   -0.4549 H   0  0
    2.0473   -1.4305   -1.2030 H   0  0
   -1.0785   -0.6077    0.6325 H   0  0
    3.8662    1.8112   -0.3474 H   0  0
    0.6808    3.7384   -0.3331 H   0  0
   -2.2797    3.2332    3.6602 H   0  0
  1  3  2  0
  1  5  1  0
  2  4  1  0
  2  5  2  0
  3  6  1  0
  4  6  2  0
  5 14  1  0
  6 23  1  0
  7  8  2  0
  8 23  1  0
  9 10  1  0
  9 11  1  0
  9 24  1  0
 10 12  1  0
 10 19  1  0
 11 13  1  0
 11 20  1  0
 12 15  1  0
 12 18  1  0
 13 18  1  0
 13 21  1  0
 14 16  1  0
 15 22  1  0
 16 17  1  0
 17 24  1  0
  1 25  1  0
  2 26  1  0
  3 27  1  0
  4 28  1  0
  7 29  1  0
  7 30  1  0
  8 31  1  0
  9 32  1  0
 10 33  1  0
 11 34  1  0
 12 35  1  0
 13 36  1  0
 14 37  1  0
 14 38  1  0
 15 39  1  0
 15 40  1  0
 16 41  1  0
 16 42  1  0
 17 43  1  0
 17 44  1  0
 19 45  1  0
 20 46  1  0
 21 47  1  0
 22 48  1  0
M  END
> <Name>
BR010365

$$$$
BR010366
  SciTegic05062102053D

 28 27  0  0  0  0            999 V2000
    3.0279   -1.1005   -0.1492 C   0  0
    2.4779   -2.2702   -0.4934 C   0  0
    2.1049   -2.6368   -1.8914 C   0  0
    3.0608   -5.8974   -5.4019 C   0  0
    3.9223   -7.1073   -5.7691 C   0  0
    3.3475   -5.4247   -3.9736 C   0  0
    3.6615   -7.5608   -7.2067 C   0  0
    2.5194   -4.2032   -3.5936 C   0  0
    4.5468   -8.7434   -7.5773 C   0  0
    2.8302   -3.8001   -2.2676 O   0  0
    4.2184   -9.2662   -9.2453 Cl  0  0
    3.2838   -0.8748    0.8800 H   0  0
    3.2311   -0.3464   -0.9018 H   0  0
    2.2785   -3.0014    0.2857 H   0  0
    2.3336   -1.8375   -2.6034 H   0  0
    1.0348   -2.8605   -1.9429 H   0  0
    2.0011   -6.1609   -5.5026 H   0  0
    3.2588   -5.0792   -6.1050 H   0  0
    3.7089   -7.9329   -5.0793 H   0  0
    4.9826   -6.8530   -5.6510 H   0  0
    3.1253   -6.2433   -3.2780 H   0  0
    4.4116   -5.1812   -3.8723 H   0  0
    2.6057   -7.8381   -7.3163 H   0  0
    3.8495   -6.7258   -7.8929 H   0  0
    1.4483   -4.4213   -3.6548 H   0  0
    2.7477   -3.3720   -4.2681 H   0  0
    4.3612   -9.5974   -6.9189 H   0  0
    5.6066   -8.4787   -7.5148 H   0  0
  1  2  2  0
  2  3  1  0
  3 10  1  0
  4  5  1  0
  4  6  1  0
  5  7  1  0
  6  8  1  0
  7  9  1  0
  8 10  1  0
  9 11  1  0
  1 12  1  0
  1 13  1  0
  2 14  1  0
  3 15  1  0
  3 16  1  0
  4 17  1  0
  4 18  1  0
  5 19  1  0
  5 20  1  0
  6 21  1  0
  6 22  1  0
  7 23  1  0
  7 24  1  0
  8 25  1  0
  8 26  1  0
  9 27  1  0
  9 28  1  0
M  END
> <Name>
BR010366

$$$$
BR010367
  SciTegic05062102053D

 34 34  0  0  0  0            999 V2000
    6.2362   -0.3571   -4.4844 C   0  0
    5.0148    0.1502   -4.9277 C   0  0
    6.2671   -1.4911   -3.6727 C   0  0
    3.8243   -0.4764   -4.5591 C   0  0
    5.0767   -2.1177   -3.3042 C   0  0
    3.8552   -1.6103   -3.7474 C   0  0
    2.5750   -2.2847   -3.3504 C   0  0
   -0.8542   -2.3279    0.1292 C   0  0
   -1.2661   -1.7204    1.4716 C   0  0
    0.4479   -1.7066   -0.3851 C   0  0
   -2.5487   -2.3628    2.0033 C   0  0
    0.8928   -2.3149   -1.7096 C   0  0
   -2.9342   -1.7782    3.3559 C   0  0
    2.1068   -1.7134   -2.1358 O   0  0
   -4.4350   -2.5252    3.9500 Cl  0  0
    7.1631    0.1301   -4.7726 H   0  0
    4.9906    1.0325   -5.5606 H   0  0
    7.2179   -1.8869   -3.3284 H   0  0
    2.8773   -0.0740   -4.9091 H   0  0
    5.1105   -3.0006   -2.6714 H   0  0
    1.8093   -2.1578   -4.1233 H   0  0
    2.7315   -3.3591   -3.2051 H   0  0
   -1.6564   -2.1730   -0.6021 H   0  0
   -0.7236   -3.4111    0.2414 H   0  0
   -1.4175   -0.6404    1.3549 H   0  0
   -0.4578   -1.8568    2.2004 H   0  0
    0.2989   -0.6276   -0.5142 H   0  0
    1.2419   -1.8468    0.3577 H   0  0
   -3.3619   -2.2039    1.2843 H   0  0
   -2.4041   -3.4465    2.0939 H   0  0
    0.1336   -2.1658   -2.4842 H   0  0
    1.0652   -3.3890   -1.5888 H   0  0
   -3.1051   -0.6997    3.2858 H   0  0
   -2.1548   -1.9601    4.1018 H   0  0
  1  2  2  0
  1  3  1  0
  2  4  1  0
  3  5  2  0
  4  6  2  0
  5  6  1  0
  6  7  1  0
  7 14  1  0
  8  9  1  0
  8 10  1  0
  9 11  1  0
 10 12  1  0
 11 13  1  0
 12 14  1  0
 13 15  1  0
  1 16  1  0
  2 17  1  0
  3 18  1  0
  4 19  1  0
  5 20  1  0
  7 21  1  0
  7 22  1  0
  8 23  1  0
  8 24  1  0
  9 25  1  0
  9 26  1  0
 10 27  1  0
 10 28  1  0
 11 29  1  0
 11 30  1  0
 12 31  1  0
 12 32  1  0
 13 33  1  0
 13 34  1  0
M  END
> <Name>
BR010367

$$$$
BR010368
  SciTegic05062102053D

 27 26  0  0  0  0            999 V2000
    1.8394   -6.1150   -1.9894 C   0  0
    0.1190   -0.2163   -0.5136 C   0  0
   -0.3501    0.3652    0.8216 C   0  0
    0.4479   -1.7066   -0.3851 C   0  0
   -0.7107    1.8459    0.6880 C   0  0
    0.8928   -2.3149   -1.7096 C   0  0
   -1.2096    2.4098    2.0120 C   0  0
    2.9928   -4.1183   -3.2277 O   0  0
    0.5834   -4.6779   -3.7805 O   0  0
    1.1744   -3.6964   -1.5384 O   0  0
    1.6718   -4.5618   -2.8312 S   0  0
   -1.6085    4.1347    1.8411 Cl  0  0
    0.8463   -6.4528   -1.6889 H   0  0
    2.2955   -6.8308   -2.6749 H   0  0
    2.4735   -5.9656   -1.1143 H   0  0
    1.0029    0.3329   -0.8595 H   0  0
   -0.6639   -0.0780   -1.2692 H   0  0
    0.4409    0.2462    1.5720 H   0  0
   -1.2228   -0.1943    1.1799 H   0  0
    1.2464   -1.8307    0.3566 H   0  0
   -0.4326   -2.2485   -0.0204 H   0  0
    0.1702    2.4075    0.3531 H   0  0
   -1.4828    1.9658   -0.0821 H   0  0
    1.7905   -1.8156   -2.0884 H   0  0
    0.0957   -2.2160   -2.4532 H   0  0
   -0.4471    2.3209    2.7916 H   0  0
   -2.1131    1.8916    2.3469 H   0  0
  1 11  1  0
  2  3  1  0
  2  4  1  0
  3  5  1  0
  4  6  1  0
  5  7  1  0
  6 10  1  0
  7 12  1  0
  8 11  2  0
  9 11  2  0
 10 11  1  0
  1 13  1  0
  1 14  1  0
  1 15  1  0
  2 16  1  0
  2 17  1  0
  3 18  1  0
  3 19  1  0
  4 20  1  0
  4 21  1  0
  5 22  1  0
  5 23  1  0
  6 24  1  0
  6 25  1  0
  7 26  1  0
  7 27  1  0
M  END
> <Name>
BR010368

$$$$
BR010369
  SciTegic05062102053D

 42 42  0  0  0  0            999 V2000
    9.4340   -3.6013    1.6339 C   0  0
    9.5000   -4.0762    2.9437 C   0  0
    7.0687   -3.1889    1.9025 C   0  0
    8.2183   -3.1576    1.1133 C   0  0
    8.3503   -4.1075    3.7329 C   0  0
    7.1346   -3.6639    3.2123 C   0  0
    7.4984   -0.2804   -0.8352 C   0  0
    8.3966   -1.1646   -0.3869 C   0  0
    5.7188   -2.5285    4.7493 C   0  0
    8.1482   -2.6474   -0.2863 C   0  0
    6.7393   -6.5238    6.4258 C   0  0
    6.1640   -7.1414    7.7019 C   0  0
    8.2704   -6.5044    6.4598 C   0  0
    4.6357   -7.1922    7.6560 C   0  0
    8.8677   -5.9170    5.1869 C   0  0
    4.0710   -7.8394    8.9138 C   0  0
    6.0050   -3.6904    3.9732 O   0  0
    8.4286   -4.5768    5.0188 O   0  0
    2.2939   -7.8749    8.8493 Cl  0  0
   10.3351   -3.5790    1.0268 H   0  0
   10.4500   -4.4207    3.3427 H   0  0
    6.1199   -2.8431    1.4993 H   0  0
    7.7234    0.7790   -0.8893 H   0  0
    6.5170   -0.6100   -1.1580 H   0  0
    9.3733   -0.8007   -0.0774 H   0  0
    4.7922   -2.6816    5.3079 H   0  0
    5.6200   -1.6634    4.0888 H   0  0
    6.5398   -2.3578    5.4497 H   0  0
    8.8901   -3.1618   -0.9202 H   0  0
    7.1727   -2.9052   -0.7330 H   0  0
    6.3552   -5.5033    6.3100 H   0  0
    6.3997   -7.0979    5.5551 H   0  0
    6.4859   -6.5550    8.5711 H   0  0
    6.5612   -8.1556    7.8309 H   0  0
    8.5982   -5.9098    7.3214 H   0  0
    8.6492   -7.5242    6.5954 H   0  0
    4.2396   -6.1744    7.5517 H   0  0
    4.3154   -7.7562    6.7713 H   0  0
    8.5696   -6.4993    4.3090 H   0  0
    9.9603   -5.9151    5.2526 H   0  0
    4.3598   -7.2808    9.8092 H   0  0
    4.4203   -8.8710    9.0183 H   0  0
  1  2  2  0
  1  4  1  0
  2  5  1  0
  3  4  2  0
  3  6  1  0
  4 10  1  0
  5  6  2  0
  5 18  1  0
  6 17  1  0
  7  8  2  0
  8 10  1  0
  9 17  1  0
 11 12  1  0
 11 13  1  0
 12 14  1  0
 13 15  1  0
 14 16  1  0
 15 18  1  0
 16 19  1  0
  1 20  1  0
  2 21  1  0
  3 22  1  0
  7 23  1  0
  7 24  1  0
  8 25  1  0
  9 26  1  0
  9 27  1  0
  9 28  1  0
 10 29  1  0
 10 30  1  0
 11 31  1  0
 11 32  1  0
 12 33  1  0
 12 34  1  0
 13 35  1  0
 13 36  1  0
 14 37  1  0
 14 38  1  0
 15 39  1  0
 15 40  1  0
 16 41  1  0
 16 42  1  0
M  END
> <Name>
BR010369

$$$$
BR010370
  SciTegic05062102053D

 42 42  0  0  0  0            999 V2000
    9.2985   -3.2271    1.3968 C   0  0
    9.3538   -3.7501    2.6886 C   0  0
    6.9045   -2.9742    1.6014 C   0  0
    8.0739   -2.8391    0.8531 C   0  0
    8.1844   -3.8853    3.4369 C   0  0
    6.9597   -3.4974    2.8933 C   0  0
    7.2334    0.0650   -1.0051 C   0  0
    8.1717   -0.7792   -0.5615 C   0  0
    5.4274   -2.5162    4.4247 C   0  0
    8.0151   -2.2774   -0.5271 C   0  0
    6.6474   -6.5051    5.9784 C   0  0
    6.0729   -7.2084    7.2097 C   0  0
    8.1723   -6.3917    6.0645 C   0  0
    4.5526   -7.3521    7.1101 C   0  0
    8.7703   -5.7170    4.8359 C   0  0
    3.9882   -8.0903    8.3232 C   0  0
    5.8109   -3.6253    3.6141 O   0  0
    8.2522   -4.4010    4.7054 O   0  0
    1.8685   -8.3120    8.1529 I   0  0
   10.2148   -3.1238    0.8217 H   0  0
   10.3109   -4.0508    3.1057 H   0  0
    5.9487   -2.6720    1.1802 H   0  0
    7.3922    1.1376   -1.0105 H   0  0
    6.2855   -0.3117   -1.3734 H   0  0
    9.1131   -0.3680   -0.2054 H   0  0
    4.4954   -2.7495    4.9454 H   0  0
    5.2943   -1.6326    3.7954 H   0  0
    6.2136   -2.3235    5.1584 H   0  0
    8.8076   -2.7182   -1.1551 H   0  0
    7.0724   -2.5770   -1.0161 H   0  0
    6.2031   -5.5066    5.8890 H   0  0
    6.3723   -7.0635    5.0754 H   0  0
    6.3296   -6.6386    8.1110 H   0  0
    6.5294   -8.2004    7.3126 H   0  0
    8.4347   -5.8133    6.9587 H   0  0
    8.6107   -7.3905    6.1733 H   0  0
    4.0977   -6.3566    7.0316 H   0  0
    4.2978   -7.8930    6.1900 H   0  0
    8.5374   -6.2804    3.9266 H   0  0
    9.8581   -5.6496    4.9384 H   0  0
    4.2227   -7.5396    9.2408 H   0  0
    4.4504   -9.0799    8.4093 H   0  0
  1  2  2  0
  1  4  1  0
  2  5  1  0
  3  4  2  0
  3  6  1  0
  4 10  1  0
  5  6  2  0
  5 18  1  0
  6 17  1  0
  7  8  2  0
  8 10  1  0
  9 17  1  0
 11 12  1  0
 11 13  1  0
 12 14  1  0
 13 15  1  0
 14 16  1  0
 15 18  1  0
 16 19  1  0
  1 20  1  0
  2 21  1  0
  3 22  1  0
  7 23  1  0
  7 24  1  0
  8 25  1  0
  9 26  1  0
  9 27  1  0
  9 28  1  0
 10 29  1  0
 10 30  1  0
 11 31  1  0
 11 32  1  0
 12 33  1  0
 12 34  1  0
 13 35  1  0
 13 36  1  0
 14 37  1  0
 14 38  1  0
 15 39  1  0
 15 40  1  0
 16 41  1  0
 16 42  1  0
M  END
> <Name>
BR010370

$$$$
BR010371
  SciTegic05062102053D

 25 24  0  0  0  0            999 V2000
   -0.2457    4.7330   -1.1630 C   0  0
    2.0446   -4.3026    1.1967 C   0  0
    0.7769   -0.0127   -0.7752 C   0  0
    0.3977    0.9315   -1.9041 C   0  0
    0.9970   -1.4335   -1.2704 C   0  0
   -1.5380    3.2299   -2.8721 O   0  0
    0.9137    3.7249   -3.2820 O   0  0
    2.8615   -3.9812   -1.2691 O   0  0
    0.4189   -4.5080   -0.8444 O   0  0
    0.2231    2.2373   -1.3719 O   0  0
    1.3667   -2.2713   -0.1834 O   0  0
   -0.1908    3.4483   -2.3861 S   0  0
    1.6565   -3.8514   -0.4752 S   0  0
    0.7674    4.9009   -0.7941 H   0  0
   -0.6370    5.6376   -1.6310 H   0  0
   -0.8992    4.4085   -0.3519 H   0  0
    1.1394   -4.2062    1.7983 H   0  0
    2.3989   -5.3345    1.2015 H   0  0
    2.8211   -3.6297    1.5635 H   0  0
    1.6790    0.3515   -0.2672 H   0  0
    0.0000    0.0000    0.0000 H   0  0
    1.1846    0.9677   -2.6642 H   0  0
   -0.5395    0.6195   -2.3760 H   0  0
    1.8020   -1.4678   -2.0110 H   0  0
    0.0904   -1.8407   -1.7295 H   0  0
  1 12  1  0
  2 13  1  0
  3  4  1  0
  3  5  1  0
  4 10  1  0
  5 11  1  0
  6 12  2  0
  7 12  2  0
  8 13  2  0
  9 13  2  0
 10 12  1  0
 11 13  1  0
  1 14  1  0
  1 15  1  0
  1 16  1  0
  2 17  1  0
  2 18  1  0
  2 19  1  0
  3 20  1  0
  3 21  1  0
  4 22  1  0
  4 23  1  0
  5 24  1  0
  5 25  1  0
M  END
> <Name>
BR010371

$$$$
BR010372
  SciTegic05062102053D

 40 40  0  0  0  0            999 V2000
    7.4297    2.6905    1.4184 C   0  0
    8.5529    2.0816    0.8587 C   0  0
    7.2635    4.1484   -0.5010 C   0  0
    6.7849    3.7238    0.7385 C   0  0
    9.0315    2.5062   -0.3808 C   0  0
    8.3868    3.5396   -1.0607 C   0  0
    3.3184    4.2986    0.2425 C   0  0
    4.2923    3.7028    0.9398 C   0  0
    9.8111    5.0129   -2.2675 C   0  0
    7.0028    0.4642   -5.2131 C   0  0
    5.5825    4.3731    1.3356 C   0  0
   10.9453    0.1517   -2.3394 C   0  0
   10.0451    0.5034   -1.1665 C   0  0
   10.5562    0.9044   -3.6021 C   0  0
    9.2722    0.7619   -6.4827 O   0  0
    8.3952    2.6761   -5.0717 O   0  0
    8.8454    3.9634   -2.2714 O   0  0
   10.1363    1.8997   -0.9199 O   0  0
    9.2260    0.5686   -3.9732 O   0  0
    8.5866    1.2594   -5.3073 S   0  0
    7.0629    2.3521    2.3837 H   0  0
    9.0506    1.2776    1.3938 H   0  0
    6.7624    4.9533   -1.0333 H   0  0
    2.4060    3.7745   -0.0193 H   0  0
    3.4234    5.3297   -0.0768 H   0  0
    4.1515    2.6702    1.2498 H   0  0
   10.0917    5.2546   -3.2956 H   0  0
   10.6918    4.6968   -1.7028 H   0  0
    9.3748    5.8957   -1.7942 H   0  0
    6.4828    0.8362   -4.3288 H   0  0
    6.4416    0.7063   -6.1168 H   0  0
    7.1621   -0.6125   -5.1384 H   0  0
    5.6482    4.3642    2.4367 H   0  0
    5.5587    5.4428    1.0660 H   0  0
   11.9925    0.3607   -2.0857 H   0  0
   10.9165   -0.9302   -2.5217 H   0  0
    9.0017    0.2562   -1.3868 H   0  0
   10.3547   -0.0309   -0.2626 H   0  0
   11.2155    0.6375   -4.4337 H   0  0
   10.6120    1.9876   -3.4536 H   0  0
  1  2  2  0
  1  4  1  0
  2  5  1  0
  3  4  2  0
  3  6  1  0
  4 11  1  0
  5  6  2  0
  5 18  1  0
  6 17  1  0
  7  8  2  0
  8 11  1  0
  9 17  1  0
 10 20  1  0
 12 13  1  0
 12 14  1  0
 13 18  1  0
 14 19  1  0
 15 20  2  0
 16 20  2  0
 19 20  1  0
  1 21  1  0
  2 22  1  0
  3 23  1  0
  7 24  1  0
  7 25  1  0
  8 26  1  0
  9 27  1  0
  9 28  1  0
  9 29  1  0
 10 30  1  0
 10 31  1  0
 10 32  1  0
 11 33  1  0
 11 34  1  0
 12 35  1  0
 12 36  1  0
 13 37  1  0
 13 38  1  0
 14 39  1  0
 14 40  1  0
M  END
> <Name>
BR010372

$$$$
BR010373
  SciTegic05062102053D

 19 19  0  0  0  0            999 V2000
    1.8851   -1.0363   -0.1124 C   0  0
    2.8783   -1.6520    2.0022 C   0  0
    0.8066   -0.4630    0.5610 C   0  0
    1.7997   -1.0786    2.6757 C   0  0
    2.9210   -1.6309    0.6081 C   0  0
    0.7638   -0.4841    1.9551 C   0  0
    4.0456   -2.2287   -0.0941 C   0  0
    4.0407   -2.6157   -1.3896 C   0  0
    5.2685   -3.2523   -2.0581 C   0  0
    6.2669   -3.3757   -1.2884 O   0  5
    5.1568   -3.5797   -3.2724 O   0  0
   -0.2887    0.0753    2.6122 O   0  0
    1.9042   -1.0120   -1.1994 H   0  0
    3.6782   -2.1117    2.5778 H   0  0
    0.0026   -0.0014   -0.0058 H   0  0
    1.7720   -1.0982    3.7618 H   0  0
    4.9518   -2.3869    0.5006 H   0  0
    3.1366   -2.4903   -1.9839 H   0  0
   -0.1745   -0.0184    3.5714 H   0  0
  1  3  1  0
  1  5  2  0
  2  4  2  0
  2  5  1  0
  3  6  2  0
  4  6  1  0
  5  7  1  0
  6 12  1  0
  7  8  2  0
  8  9  1  0
  9 10  1  0
  9 11  2  0
  1 13  1  0
  2 14  1  0
  3 15  1  0
  4 16  1  0
  7 17  1  0
  8 18  1  0
 12 19  1  0
M  CHG  1  10  -1
M  END
> <Name>
BR010373

$$$$
BR010374
  SciTegic05062102053D

 21 21  0  0  0  0            999 V2000
    1.8851   -1.0363   -0.1124 C   0  0
    2.8783   -1.6520    2.0022 C   0  0
    0.8066   -0.4630    0.5610 C   0  0
    1.7997   -1.0786    2.6757 C   0  0
    2.9210   -1.6309    0.6081 C   0  0
    0.7638   -0.4841    1.9551 C   0  0
    5.0104   -4.4291   -1.1439 C   0  0
    4.0745   -2.2433   -0.1117 C   0  0
    3.8496   -3.7224   -0.4362 C   0  0
    4.8137   -5.6618   -1.3504 O   0  5
    6.0112   -3.7198   -1.4373 O   0  0
   -0.2881    0.0765    2.6120 O   0  0
    1.9102   -1.0154   -1.1986 H   0  0
    3.6809   -2.1132    2.5719 H   0  0
    0.0027   -0.0010   -0.0060 H   0  0
    1.7724   -1.0980    3.7615 H   0  0
    4.2728   -1.6923   -1.0442 H   0  0
    4.9923   -2.1376    0.4873 H   0  0
    2.9619   -3.8270   -1.0734 H   0  0
    3.6420   -4.2739    0.4900 H   0  0
   -0.1742   -0.0173    3.5713 H   0  0
  1  3  1  0
  1  5  2  0
  2  4  2  0
  2  5  1  0
  3  6  2  0
  4  6  1  0
  5  8  1  0
  6 12  1  0
  7  9  1  0
  7 10  1  0
  7 11  2  0
  8  9  1  0
  1 13  1  0
  2 14  1  0
  3 15  1  0
  4 16  1  0
  8 17  1  0
  8 18  1  0
  9 19  1  0
  9 20  1  0
 12 21  1  0
M  CHG  1  10  -1
M  END
> <Name>
BR010374

$$$$
BR010375
  SciTegic05062102053D

 23 23  0  0  0  0            999 V2000
    1.8851   -1.0363   -0.1124 C   0  0
    2.8783   -1.6520    2.0022 C   0  0
    0.8066   -0.4630    0.5610 C   0  0
    1.7997   -1.0786    2.6757 C   0  0
    2.9210   -1.6309    0.6081 C   0  0
    0.7638   -0.4841    1.9551 C   0  0
    4.0745   -2.2433   -0.1117 C   0  0
    3.8354   -3.7257   -0.4304 C   0  0
    5.0319   -4.3653   -1.1210 C   0  0
   -0.2881    0.0765    2.6120 O   0  0
    4.7301   -5.7262   -1.3959 O   0  0
    1.9102   -1.0154   -1.1986 H   0  0
    3.6809   -2.1132    2.5719 H   0  0
    0.0027   -0.0010   -0.0060 H   0  0
    1.7724   -1.0980    3.7615 H   0  0
    4.9980   -2.1479    0.4845 H   0  0
    4.2764   -1.7013   -1.0513 H   0  0
    2.9468   -3.8391   -1.0653 H   0  0
    3.6086   -4.2800    0.4899 H   0  0
    5.2532   -3.8601   -2.0666 H   0  0
    5.9186   -4.3278   -0.4801 H   0  0
   -0.1742   -0.0173    3.5713 H   0  0
    5.5101   -6.1035   -1.8343 H   0  0
  1  3  1  0
  1  5  2  0
  2  4  2  0
  2  5  1  0
  3  6  2  0
  4  6  1  0
  5  7  1  0
  6 10  1  0
  7  8  1  0
  8  9  1  0
  9 11  1  0
  1 12  1  0
  2 13  1  0
  3 14  1  0
  4 15  1  0
  7 16  1  0
  7 17  1  0
  8 18  1  0
  8 19  1  0
  9 20  1  0
  9 21  1  0
 10 22  1  0
 11 23  1  0
M  END
> <Name>
BR010375

$$$$
BR010376
  SciTegic05062102053D

 30 30  0  0  0  0            999 V2000
    1.8851   -1.0363   -0.1124 C   0  0
    2.8783   -1.6520    2.0022 C   0  0
    0.8066   -0.4630    0.5610 C   0  0
    1.7997   -1.0786    2.6757 C   0  0
    2.9210   -1.6309    0.6081 C   0  0
    0.7638   -0.4841    1.9551 C   0  0
   -2.4701   -0.3072    3.5239 C   0  0
   -1.3686   -0.7131    2.8888 C   0  0
    5.8200   -6.3856   -2.0265 C   0  0
    4.0745   -2.2433   -0.1117 C   0  0
    3.8354   -3.7257   -0.4304 C   0  0
    5.0319   -4.3653   -1.1210 C   0  0
   -0.2881    0.0765    2.6120 O   0  0
    4.7301   -5.7262   -1.3959 O   0  0
    1.9102   -1.0154   -1.1986 H   0  0
    3.6809   -2.1132    2.5719 H   0  0
    0.0027   -0.0010   -0.0060 H   0  0
    1.7724   -1.0980    3.7615 H   0  0
   -3.2856   -0.9984    3.7046 H   0  0
   -2.5771    0.7138    3.8727 H   0  0
   -1.2218   -1.7195    2.5252 H   0  0
    5.5529   -7.4270   -2.2223 H   0  0
    6.6991   -6.3394   -1.3787 H   0  0
    6.0399   -5.8843   -2.9720 H   0  0
    4.9980   -2.1479    0.4845 H   0  0
    4.2764   -1.7013   -1.0513 H   0  0
    2.9468   -3.8391   -1.0653 H   0  0
    3.6086   -4.2800    0.4899 H   0  0
    5.2532   -3.8601   -2.0666 H   0  0
    5.9186   -4.3278   -0.4801 H   0  0
  1  3  2  0
  1  5  1  0
  2  4  1  0
  2  5  2  0
  3  6  1  0
  4  6  2  0
  5 10  1  0
  6 13  1  0
  7  8  2  0
  8 13  1  0
  9 14  1  0
 10 11  1  0
 11 12  1  0
 12 14  1  0
  1 15  1  0
  2 16  1  0
  3 17  1  0
  4 18  1  0
  7 19  1  0
  7 20  1  0
  8 21  1  0
  9 22  1  0
  9 23  1  0
  9 24  1  0
 10 25  1  0
 10 26  1  0
 11 27  1  0
 11 28  1  0
 12 29  1  0
 12 30  1  0
M  END
> <Name>
BR010376

$$$$
BR010377
  SciTegic05062102053D

 33 33  0  0  0  0            999 V2000
    2.2706   -0.5217    0.0674 C   0  0
    2.4929   -2.1669    1.8227 C   0  0
    1.1920    0.0514    0.7411 C   0  0
    1.4143   -1.5938    2.4964 C   0  0
    2.9210   -1.6309    0.6081 C   0  0
    0.7639   -0.4846    1.9556 C   0  0
   -2.6665    0.0589    2.8976 C   0  0
   -1.5422   -0.3896    2.3353 C   0  0
    4.2004   -6.8594   -4.4092 C   0  0
    4.0745   -2.2433   -0.1117 C   0  0
    3.6296   -3.3432   -1.0856 C   0  0
    4.8097   -4.0037   -1.7846 C   0  0
    6.1562   -6.7166   -2.6758 O   0  0
    6.0276   -4.9889   -4.5258 O   0  0
   -0.2877    0.0756    2.6134 O   0  0
    4.3193   -4.9951   -2.6764 O   0  0
    5.3912   -5.8574   -3.5563 S   0  0
    2.5973   -0.0976   -0.8783 H   0  0
    2.9936   -3.0311    2.2515 H   0  0
    0.6896    0.9156    0.3148 H   0  0
    1.0859   -2.0157    3.4421 H   0  0
   -3.6254   -0.3647    2.6208 H   0  0
   -2.6508    0.8501    3.6387 H   0  0
   -1.5136   -1.1746    1.5940 H   0  0
    3.6217   -6.2160   -5.0739 H   0  0
    4.7359   -7.6180   -4.9821 H   0  0
    3.5504   -7.3273   -3.6683 H   0  0
    4.7971   -2.6686    0.6056 H   0  0
    4.6353   -1.4740   -0.6696 H   0  0
    2.9467   -2.9297   -1.8393 H   0  0
    3.0482   -4.1083   -0.5541 H   0  0
    5.3828   -3.2702   -2.3609 H   0  0
    5.4735   -4.4852   -1.0594 H   0  0
  1  3  2  0
  1  5  1  0
  2  4  1  0
  2  5  2  0
  3  6  1  0
  4  6  2  0
  5 10  1  0
  6 15  1  0
  7  8  2  0
  8 15  1  0
  9 17  1  0
 10 11  1  0
 11 12  1  0
 12 16  1  0
 13 17  2  0
 14 17  2  0
 16 17  1  0
  1 18  1  0
  2 19  1  0
  3 20  1  0
  4 21  1  0
  7 22  1  0
  7 23  1  0
  8 24  1  0
  9 25  1  0
  9 26  1  0
  9 27  1  0
 10 28  1  0
 10 29  1  0
 11 30  1  0
 11 31  1  0
 12 32  1  0
 12 33  1  0
M  END
> <Name>
BR010377

$$$$
BR010378
  SciTegic05062102053D

 34 33  0  0  0  0            999 V2000
   -0.3884   -4.9892    1.9650 C   0  0
   -1.5010   -4.4382    2.4629 C   0  0
   -2.7921   -4.3249    1.7061 C   0  0
   -3.2042   -2.8609    1.5329 C   0  0
   -4.5251   -2.6870    0.7769 C   0  0
   -4.9018   -1.2223    0.5384 C   0  0
   -6.2443   -1.1101   -0.1885 C   0  0
   -6.6711    0.3353   -0.4625 C   0  0
   -7.9775    0.5115   -1.2437 C   0  0
   -8.3654    1.9777   -1.4595 C   0  0
   -9.6572    2.1188   -2.2571 C   0  0
   -9.9845    3.4921   -2.4130 O   0  0
    0.5241   -5.0505    2.5475 H   0  0
   -0.3778   -5.3906    0.9576 H   0  0
   -1.4825   -4.0547    3.4798 H   0  0
   -3.5591   -4.8723    2.2649 H   0  0
   -2.7084   -4.8036    0.7229 H   0  0
   -2.4217   -2.3280    0.9771 H   0  0
   -3.2776   -2.3739    2.5137 H   0  0
   -5.3302   -3.1928    1.3236 H   0  0
   -4.4336   -3.1949   -0.1913 H   0  0
   -4.1141   -0.7422   -0.0528 H   0  0
   -4.9663   -0.6905    1.4941 H   0  0
   -7.0231   -1.5820    0.4239 H   0  0
   -6.2086   -1.6757   -1.1266 H   0  0
   -6.7602    0.8574    0.4984 H   0  0
   -5.8689    0.8421   -1.0135 H   0  0
   -7.8533    0.0203   -2.2167 H   0  0
   -8.7928   -0.0173   -0.7366 H   0  0
   -8.4973    2.4784   -0.4947 H   0  0
   -7.5530    2.4851   -1.9935 H   0  0
  -10.4792    1.6286   -1.7260 H   0  0
   -9.5579    1.6640   -3.2479 H   0  0
  -10.8094    3.5282   -2.9242 H   0  0
  1  2  2  0
  2  3  1  0
  3  4  1  0
  4  5  1  0
  5  6  1  0
  6  7  1  0
  7  8  1  0
  8  9  1  0
  9 10  1  0
 10 11  1  0
 11 12  1  0
  1 13  1  0
  1 14  1  0
  2 15  1  0
  3 16  1  0
  3 17  1  0
  4 18  1  0
  4 19  1  0
  5 20  1  0
  5 21  1  0
  6 22  1  0
  6 23  1  0
  7 24  1  0
  7 25  1  0
  8 26  1  0
  8 27  1  0
  9 28  1  0
  9 29  1  0
 10 30  1  0
 10 31  1  0
 11 32  1  0
 11 33  1  0
 12 34  1  0
M  END
> <Name>
BR010378

$$$$
BR010379
  SciTegic05062102053D

 40 39  0  0  0  0            999 V2000
   -0.2321   -4.8911    1.6916 C   0  0
   -1.3707   -4.4323    2.2232 C   0  0
  -11.4544    5.6374   -2.5576 C   0  0
   -2.6617   -4.3142    1.4670 C   0  0
   -3.1378   -2.8606    1.4103 C   0  0
   -4.4614   -2.6836    0.6597 C   0  0
   -4.9018   -1.2223    0.5384 C   0  0
   -6.2443   -1.1101   -0.1885 C   0  0
   -6.7338    0.3327   -0.3472 C   0  0
   -8.0427    0.5147   -1.1226 C   0  0
   -8.4946    1.9751   -1.2213 C   0  0
   -9.7874    2.1242   -2.0159 C   0  0
  -12.6874    3.3638   -2.1566 O   0  0
  -11.3447    3.6730   -4.2839 O   0  0
  -10.1748    3.4898   -2.0620 O   0  0
  -11.5391    3.8916   -2.8649 S   0  0
    0.6792   -4.9597    2.2750 H   0  0
   -0.1986   -5.2077    0.6548 H   0  0
   -1.3745   -4.1330    3.2681 H   0  0
  -10.5905    6.0392   -3.0895 H   0  0
  -12.3749    6.0962   -2.9217 H   0  0
  -11.3482    5.7931   -1.4830 H   0  0
   -3.4064   -4.9389    1.9725 H   0  0
   -2.5518   -4.7067    0.4487 H   0  0
   -2.3771   -2.2500    0.9068 H   0  0
   -3.2378   -2.4594    2.4270 H   0  0
   -5.2459   -3.2675    1.1563 H   0  0
   -4.3425   -3.1059   -0.3460 H   0  0
   -4.1333   -0.6612   -0.0047 H   0  0
   -4.9948   -0.7740    1.5337 H   0  0
   -7.0044   -1.6645    0.3765 H   0  0
   -6.1787   -1.5947   -1.1693 H   0  0
   -6.8509    0.7698    0.6523 H   0  0
   -5.9522    0.9178   -0.8479 H   0  0
   -7.8918    0.1108   -2.1314 H   0  0
   -8.8362   -0.0893   -0.6676 H   0  0
   -8.6535    2.3887   -0.2200 H   0  0
   -7.7029    2.5598   -1.7051 H   0  0
  -10.5893    1.5563   -1.5338 H   0  0
   -9.6629    1.7569   -3.0396 H   0  0
  1  2  2  0
  2  4  1  0
  3 16  1  0
  4  5  1  0
  5  6  1  0
  6  7  1  0
  7  8  1  0
  8  9  1  0
  9 10  1  0
 10 11  1  0
 11 12  1  0
 12 15  1  0
 13 16  2  0
 14 16  2  0
 15 16  1  0
  1 17  1  0
  1 18  1  0
  2 19  1  0
  3 20  1  0
  3 21  1  0
  3 22  1  0
  4 23  1  0
  4 24  1  0
  5 25  1  0
  5 26  1  0
  6 27  1  0
  6 28  1  0
  7 29  1  0
  7 30  1  0
  8 31  1  0
  8 32  1  0
  9 33  1  0
  9 34  1  0
 10 35  1  0
 10 36  1  0
 11 37  1  0
 11 38  1  0
 12 39  1  0
 12 40  1  0
M  END
> <Name>
BR010379

$$$$
BR010380
  SciTegic05062102053D

 50 52  0  0  1  0            999 V2000
    7.9921    1.6807    3.5940 C   0  0
    7.0050    2.5850    3.9857 C   0  0
    7.7784    0.8470    2.4963 C   0  0
    5.8040    2.6555    3.2798 C   0  0
    6.5774    0.9176    1.7903 C   0  0
    5.5902    1.8218    2.1820 C   0  0
   -1.0397    1.2611    1.4680 C   0  0  2  0  0  0
   -0.2098    0.0657    1.0720 C   0  0  2  0  0  0
   -1.0910   -1.0903    1.5387 C   0  0  1  0  0  0
   -1.7098    0.8153    2.7452 C   0  0  2  0  0  0
   -3.2560    1.7671    1.3668 C   0  0
   -4.4475    0.9586    0.8718 C   0  0
   -3.5327    3.2639    1.2831 C   0  0
    4.2922    1.8974    1.4186 C   0  0
    3.2471    0.9403    1.9925 C   0  0
    1.9510    0.9820    1.1950 C   0  0
   -1.3262   -3.4925    2.2500 C   0  0
   -0.3587   -2.3799    1.8619 C   0  0  1  0  0  0
   -2.1185    1.4546    0.5538 O   0  0
   -1.7712   -0.6206    2.7185 O   0  0
   -2.9938    1.4283    2.7339 O   0  0
   -0.5837   -4.6650    2.5674 O   0  0
    0.3670   -2.8046    0.7078 O   0  0
    1.0192    0.0857    1.7854 O   0  0
    8.9277    1.6269    4.1430 H   0  0
    7.1716    3.2350    4.8398 H   0  0
    8.5471    0.1437    2.1904 H   0  0
    5.0404    3.3630    3.5923 H   0  0
    6.4196    0.2640    0.9365 H   0  0
   -0.4857    2.1985    1.5794 H   0  0
   -0.0013    0.0086   -0.0008 H   0  0
   -1.8635   -1.2914    0.7887 H   0  0
   -1.1619    1.1092    3.6456 H   0  0
   -4.2298   -0.1076    0.9397 H   0  0
   -4.6634    1.2093   -0.1671 H   0  0
   -5.3265    1.1788    1.4783 H   0  0
   -2.6685    3.8227    1.6417 H   0  0
   -4.3975    3.5171    1.8960 H   0  0
   -3.7347    3.5477    0.2505 H   0  0
    4.4697    1.6629    0.3611 H   0  0
    3.9075    2.9252    1.4425 H   0  0
    3.0355    1.1850    3.0417 H   0  0
    3.6325   -0.0878    2.0051 H   0  0
    1.5194    1.9880    1.2034 H   0  0
    2.1206    0.6749    0.1581 H   0  0
   -1.9125   -3.2169    3.1328 H   0  0
   -2.0017   -3.7319    1.4228 H   0  0
    0.3711   -2.2201    2.6650 H   0  0
   -1.2306   -5.3468    2.8081 H   0  0
    0.9889   -2.0917    0.4982 H   0  0
  1  2  1  0
  1  3  2  0
  2  4  2  0
  3  5  1  0
  4  6  1  0
  5  6  2  0
  6 14  1  0
  7  8  1  0
  7 10  1  0
  7 19  1  0
  8  9  1  0
  8 24  1  0
  9 18  1  0
  9 20  1  0
 10 20  1  0
 10 21  1  0
 11 12  1  0
 11 13  1  0
 11 19  1  0
 11 21  1  0
 14 15  1  0
 15 16  1  0
 16 24  1  0
 17 18  1  0
 17 22  1  0
 18 23  1  0
  1 25  1  0
  2 26  1  0
  3 27  1  0
  4 28  1  0
  5 29  1  0
  7 30  1  0
  8 31  1  0
  9 32  1  0
 10 33  1  0
 12 34  1  0
 12 35  1  0
 12 36  1  0
 13 37  1  0
 13 38  1  0
 13 39  1  0
 14 40  1  0
 14 41  1  0
 15 42  1  0
 15 43  1  0
 16 44  1  0
 16 45  1  0
 17 46  1  0
 17 47  1  0
 18 48  1  0
 22 49  1  0
 23 50  1  0
M  END
> <Name>
BR010380

$$$$
BR010381
  SciTegic05062102053D

 43 43  0  0  0  0            999 V2000
    1.1576   -9.5119   -2.7743 C   0  0
    2.3554  -10.2265   -2.7865 C   0  0
    2.3735   -7.4665   -3.1931 C   0  0
    1.1666   -8.1319   -2.9776 C   0  0
    3.5623   -9.5611   -3.0020 C   0  0
    3.5713   -8.1811   -3.2053 C   0  0
   -0.9636   -6.1183   -4.9778 C   0  0
   10.0942  -13.8408   -8.4395 C   0  0
   -0.7530   -7.2687   -4.3282 C   0  0
    9.6220  -14.0280   -7.2021 C   0  0
    5.1803   -7.3893   -4.7674 C   0  0
   -0.1143   -7.3682   -2.9671 C   0  0
    8.1759  -13.8878   -6.8256 C   0  0
    7.9815  -12.7863   -5.7807 C   0  0
    6.5135  -12.5520   -5.4112 C   0  0
    6.3193  -11.4702   -4.3499 C   0  0
    4.8499  -11.3009   -3.9874 C   0  0
    4.7438   -7.5202   -3.4159 O   0  0
    4.7325  -10.2749   -3.0115 O   0  0
    0.2220  -10.0388   -2.6073 H   0  0
    2.3413  -11.3011   -2.6271 H   0  0
    2.3832   -6.3909   -3.3524 H   0  0
   -1.4277   -6.0969   -5.9576 H   0  0
   -0.6722   -5.1741   -4.5312 H   0  0
   11.1516  -13.9623   -8.6480 H   0  0
    9.4418  -13.5639   -9.2601 H   0  0
   -1.0635   -8.1967   -4.8022 H   0  0
   10.3180  -14.3081   -6.4156 H   0  0
    6.1263   -6.8431   -4.7942 H   0  0
    4.4223   -6.8552   -5.3459 H   0  0
    5.3251   -8.3854   -5.1922 H   0  0
   -0.8386   -7.8426   -2.2837 H   0  0
    0.0502   -6.3621   -2.5449 H   0  0
    7.8360  -14.8514   -6.4304 H   0  0
    7.5644  -13.6701   -7.7097 H   0  0
    8.5533  -13.0240   -4.8745 H   0  0
    8.3889  -11.8437   -6.1692 H   0  0
    5.9749  -12.2608   -6.3216 H   0  0
    6.0663  -13.4928   -5.0678 H   0  0
    6.7174  -10.5122   -4.7065 H   0  0
    6.8823  -11.7117   -3.4410 H   0  0
    4.2613  -11.0150   -4.8649 H   0  0
    4.4415  -12.2269   -3.5702 H   0  0
  1  2  2  0
  1  4  1  0
  2  5  1  0
  3  4  2  0
  3  6  1  0
  4 12  1  0
  5  6  2  0
  5 19  1  0
  6 18  1  0
  7  9  2  0
  8 10  2  0
  9 12  1  0
 10 13  1  0
 11 18  1  0
 13 14  1  0
 14 15  1  0
 15 16  1  0
 16 17  1  0
 17 19  1  0
  1 20  1  0
  2 21  1  0
  3 22  1  0
  7 23  1  0
  7 24  1  0
  8 25  1  0
  8 26  1  0
  9 27  1  0
 10 28  1  0
 11 29  1  0
 11 30  1  0
 11 31  1  0
 12 32  1  0
 12 33  1  0
 13 34  1  0
 13 35  1  0
 14 36  1  0
 14 37  1  0
 15 38  1  0
 15 39  1  0
 16 40  1  0
 16 41  1  0
 17 42  1  0
 17 43  1  0
M  END
> <Name>
BR010381

$$$$
BR010382
  SciTegic05062102053D

 69 71  0  0  0  0            999 V2000
   11.9308   -5.2613    5.4369 C   0  0
   10.7703   -4.8103    5.9261 C   0  0
   -1.2578   -3.5888    1.9536 C   0  0
   -0.3587   -2.3799    1.8619 C   0  0  2  0  0  0
   -1.0910   -1.0903    1.5387 C   0  0  2  0  0  0
   -1.0397    1.2611    1.4680 C   0  0  2  0  0  0
   -0.2098    0.0657    1.0720 C   0  0  1  0  0  0
   -1.7098    0.8153    2.7452 C   0  0  2  0  0  0
    0.6591   -4.1561    0.8825 C   0  0
   -3.2560    1.7671    1.3668 C   0  0
    0.4713   -4.7356   -0.5139 C   0  0
    2.0244   -4.5180    1.4534 C   0  0
   -4.4475    0.9586    0.8718 C   0  0
   -3.5327    3.2639    1.2831 C   0  0
    9.4739   -4.8387    5.1704 C   0  0
    8.9217   -3.4256    4.9677 C   0  0
    7.5897   -3.3964    4.2116 C   0  0
    7.0726   -1.9805    3.9436 C   0  0
    5.7252   -2.0143    3.2180 C   0  0
    5.1600   -0.6232    2.9149 C   0  0
    3.8423   -0.5909    2.1337 C   0  0
    3.3139    0.8259    1.8882 C   0  0
    2.0141    0.8243    1.0912 C   0  0
   -0.3567   -4.6790    1.7544 O   0  0
   -1.7712   -0.6206    2.7185 O   0  0
    0.5401   -2.7260    0.8045 O   0  0
   -2.1185    1.4546    0.5538 O   0  0
   -2.9938    1.4283    2.7339 O   0  0
    1.0192    0.0857    1.7854 O   0  0
   12.8453   -5.2215    6.0182 H   0  0
   11.9798   -5.6809    4.4380 H   0  0
   10.7520   -4.4055    6.9347 H   0  0
   -1.7615   -3.6806    2.9195 H   0  0
   -2.0057   -3.6166    1.1532 H   0  0
    0.2345   -2.2665    2.7778 H   0  0
   -1.8656   -1.2930    0.7895 H   0  0
   -0.4868    2.1989    1.5799 H   0  0
   -0.0002   -0.0001    0.0000 H   0  0
   -1.1611    1.1088    3.6453 H   0  0
   -0.5108   -4.4642   -0.9013 H   0  0
    0.5502   -5.8223   -0.4803 H   0  0
    1.2365   -4.3459   -1.1854 H   0  0
    2.1359   -4.0934    2.4512 H   0  0
    2.8130   -4.1249    0.8117 H   0  0
    2.1269   -5.6015    1.5166 H   0  0
   -4.2298   -0.1076    0.9397 H   0  0
   -4.6635    1.2093   -0.1672 H   0  0
   -5.3265    1.1788    1.4783 H   0  0
   -2.6685    3.8226    1.6417 H   0  0
   -4.3975    3.5171    1.8960 H   0  0
   -3.7347    3.5476    0.2505 H   0  0
    8.7639   -5.4460    5.7425 H   0  0
    9.6031   -5.3277    4.1972 H   0  0
    9.6485   -2.8311    4.3989 H   0  0
    8.8020   -2.9274    5.9383 H   0  0
    6.8377   -3.9663    4.7709 H   0  0
    7.7295   -3.9134    3.2540 H   0  0
    7.8098   -1.4389    3.3405 H   0  0
    6.9573   -1.4375    4.8881 H   0  0
    4.9961   -2.5465    3.8421 H   0  0
    5.8150   -2.5934    2.2918 H   0  0
    5.0212   -0.0921    3.8649 H   0  0
    5.9090   -0.0527    2.3514 H   0  0
    4.0130   -1.0882    1.1708 H   0  0
    3.0824   -1.1855    2.6537 H   0  0
    3.1346    1.3316    2.8427 H   0  0
    4.0730    1.3982    1.3416 H   0  0
    2.1743    0.3521    0.1168 H   0  0
    1.6507    1.8446    0.9319 H   0  0
  1  2  2  0
  2 15  1  0
  3  4  1  0
  3 24  1  0
  4  5  1  0
  4 26  1  0
  5  7  1  0
  5 25  1  0
  6  7  1  0
  6  8  1  0
  6 27  1  0
  7 29  1  0
  8 25  1  0
  8 28  1  0
  9 11  1  0
  9 12  1  0
  9 24  1  0
  9 26  1  0
 10 13  1  0
 10 14  1  0
 10 27  1  0
 10 28  1  0
 15 16  1  0
 16 17  1  0
 17 18  1  0
 18 19  1  0
 19 20  1  0
 20 21  1  0
 21 22  1  0
 22 23  1  0
 23 29  1  0
  1 30  1  0
  1 31  1  0
  2 32  1  0
  3 33  1  0
  3 34  1  0
  4 35  1  0
  5 36  1  0
  6 37  1  0
  7 38  1  0
  8 39  1  0
 11 40  1  0
 11 41  1  0
 11 42  1  0
 12 43  1  0
 12 44  1  0
 12 45  1  0
 13 46  1  0
 13 47  1  0
 13 48  1  0
 14 49  1  0
 14 50  1  0
 14 51  1  0
 15 52  1  0
 15 53  1  0
 16 54  1  0
 16 55  1  0
 17 56  1  0
 17 57  1  0
 18 58  1  0
 18 59  1  0
 19 60  1  0
 19 61  1  0
 20 62  1  0
 20 63  1  0
 21 64  1  0
 21 65  1  0
 22 66  1  0
 22 67  1  0
 23 68  1  0
 23 69  1  0
M  END
> <Name>
BR010382

$$$$
BR010383
  SciTegic05062102053D

106109  0  0  1  0            999 V2000
    2.4942   -4.8032   -7.1391 C   0  0
    8.3582   -9.1292    0.9883 C   0  0
    1.9149   -3.5602   -6.8843 C   0  0
    7.6169   -9.7266    2.0077 C   0  0
    3.4804   -4.7957   -4.9336 C   0  0
    6.3137   -8.5729   -0.1725 C   0  0
    3.2769   -5.4210   -6.1637 C   0  0
    7.7066   -8.5523   -0.1018 C   0  0
    2.1184   -2.9349   -5.6542 C   0  0
    6.2240   -9.7472    1.9370 C   0  0
    2.9012   -3.5526   -4.6788 C   0  0
    5.5724   -9.1703    0.8469 C   0  0
    5.9243   -7.9728   -7.3614 C   0  0
    9.6835   -8.2687   -3.4134 C   0  0
    1.6195    1.8200   -6.6537 C   0  0  1  0  0  0
    5.4752  -10.3976    6.6842 C   0  0  1  0  0  0
    3.1432    1.9443   -6.6297 C   0  0  2  0  0  0
    6.4221  -11.5913    6.8128 C   0  0  2  0  0  0
    1.1554    0.6006   -5.8576 C   0  0  2  0  0  0
    4.9398  -10.2726    5.2582 C   0  0  2  0  0  0
    3.7783    0.6216   -7.0725 C   0  0  1  0  0  0
    7.5086  -11.5095    5.7349 C   0  0  1  0  0  0
    1.9177   -0.6529   -6.2931 C   0  0  1  0  0  0
    6.0857  -10.3065    4.2443 C   0  0  1  0  0  0
    3.9201   -3.6493   -2.5321 C   0  0
    3.5171   -8.0820    1.3443 C   0  0
    3.8942   -6.7512   -6.4351 C   0  0
    8.5072   -7.9047   -1.2018 C   0  0
    5.2898   -6.6272   -7.0580 C   0  0
    8.8607   -8.9006   -2.3047 C   0  0
    5.3007    0.6416   -7.0056 C   0  0
    8.4525  -12.7058    5.7508 C   0  0
    8.9003   -9.4361   -7.1719 C   0  0
    9.8866   -8.3560   -6.7143 C   0  0
    7.9967   -8.9599   -8.3050 C   0  0
   10.7722   -8.8349   -5.5706 C   0  0
    7.1844   -7.8286   -7.9234 N   0  0
    9.9887   -9.1898   -4.3959 N   0  0
    5.3725   -9.0456   -7.1313 O   0  0
   10.0222   -7.0882   -3.4124 O   0  0
    3.3274   -0.4431   -6.2257 O   0  0
    6.9042  -11.4594    4.4365 O   0  0
    1.0395    3.0067   -6.1192 O   0  0
    4.3969  -10.5481    7.6034 O   0  0
    3.5530    2.2616   -5.2976 O   0  0
    5.6642  -12.7926    6.6528 O   0  0
   -0.2392    0.4128   -6.0956 O   0  0
    4.2457   -9.0305    5.1461 O   0  0
    5.8032   -0.3957   -7.8289 O   0  0
    9.6435  -12.3513    5.0710 O   0  0
    1.5448   -1.7158   -5.4168 O   0  0
    5.5115  -10.3339    2.9391 O   0  0
    3.1078   -2.9514   -3.4739 O   0  0
    4.2126   -9.1850    0.7664 O   0  0
    2.3288   -5.2837   -8.0996 H   0  0
    9.4429   -9.1164    1.0526 H   0  0
    1.3067   -3.0844   -7.6486 H   0  0
    8.1309  -10.1744    2.8537 H   0  0
    4.0897   -5.2754   -4.1713 H   0  0
    5.8032   -8.1234   -1.0209 H   0  0
    1.2747    1.7378   -7.6923 H   0  0
    6.0048   -9.4780    6.9635 H   0  0
    3.4581    2.7747   -7.2720 H   0  0
    6.8566  -11.6138    7.8188 H   0  0
    1.2744    0.7805   -4.7821 H   0  0
    4.2100  -11.0656    5.0547 H   0  0
    3.4832    0.3949   -8.1052 H   0  0
    8.1056  -10.5995    5.8773 H   0  0
    1.6315   -0.9499   -7.3100 H   0  0
    6.6966   -9.3976    4.3154 H   0  0
    4.0042   -3.0605   -1.6154 H   0  0
    4.9111   -3.8200   -2.9603 H   0  0
    3.4536   -4.6105   -2.3036 H   0  0
    2.4412   -8.2184    1.2110 H   0  0
    3.8399   -7.1547    0.8644 H   0  0
    3.7469   -8.0367    2.4115 H   0  0
    3.9565   -7.3398   -5.5044 H   0  0
    3.2445   -7.3446   -7.1002 H   0  0
    7.9413   -7.0614   -1.6185 H   0  0
    9.4203   -7.4651   -0.7798 H   0  0
    5.9561   -6.0805   -6.3790 H   0  0
    5.2331   -6.0570   -7.9937 H   0  0
    7.9472   -9.3139   -2.7503 H   0  0
    9.4333   -9.7395   -1.8896 H   0  0
    5.6318    0.4782   -5.9795 H   0  0
    5.6780    1.5998   -7.3644 H   0  0
    7.9893  -13.5540    5.2454 H   0  0
    8.6932  -12.9785    6.7789 H   0  0
    8.2857   -9.7627   -6.3243 H   0  0
    9.4629  -10.3111   -7.5196 H   0  0
   10.5249   -8.0660   -7.5572 H   0  0
    9.3388   -7.4615   -6.3959 H   0  0
    7.3111   -9.7611   -8.5985 H   0  0
    8.5804   -8.6720   -9.1850 H   0  0
   11.3627   -9.7081   -5.8659 H   0  0
   11.4662   -8.0407   -5.2774 H   0  0
    7.5447   -6.8974   -8.1110 H   0  0
    9.7016  -10.1539   -4.3020 H   0  0
    1.3366    3.7378   -6.6830 H   0  0
    4.7912  -10.5840    8.4888 H   0  0
    4.5187    2.3324   -5.3196 H   0  0
    5.2678  -12.7487    5.7702 H   0  0
   -0.3381    0.2724   -7.0494 H   0  0
    4.8922   -8.3363    5.3446 H   0  0
    6.7731   -0.3621   -7.7695 H   0  0
   10.2274  -13.1284    5.0948 H   0  0
  1  3  1  0
  1  7  2  0
  2  4  1  0
  2  8  2  0
  3  9  2  0
  4 10  2  0
  5  7  1  0
  5 11  2  0
  6  8  1  0
  6 12  2  0
  7 27  1  0
  8 28  1  0
  9 11  1  0
  9 51  1  0
 10 12  1  0
 10 52  1  0
 11 53  1  0
 12 54  1  0
 13 29  1  0
 13 37  1  0
 13 39  2  0
 14 30  1  0
 14 38  1  0
 14 40  2  0
 15 17  1  0
 15 19  1  0
 15 43  1  0
 16 18  1  0
 16 20  1  0
 16 44  1  0
 17 21  1  0
 17 45  1  0
 18 22  1  0
 18 46  1  0
 19 23  1  0
 19 47  1  0
 20 24  1  0
 20 48  1  0
 21 31  1  0
 21 41  1  0
 22 32  1  0
 22 42  1  0
 23 41  1  0
 23 51  1  0
 24 42  1  0
 24 52  1  0
 25 53  1  0
 26 54  1  0
 27 29  1  0
 28 30  1  0
 31 49  1  0
 32 50  1  0
 33 34  1  0
 33 35  1  0
 34 36  1  0
 35 37  1  0
 36 38  1  0
  1 55  1  0
  2 56  1  0
  3 57  1  0
  4 58  1  0
  5 59  1  0
  6 60  1  0
 15 61  1  0
 16 62  1  0
 17 63  1  0
 18 64  1  0
 19 65  1  0
 20 66  1  0
 21 67  1  0
 22 68  1  0
 23 69  1  0
 24 70  1  0
 25 71  1  0
 25 72  1  0
 25 73  1  0
 26 74  1  0
 26 75  1  0
 26 76  1  0
 27 77  1  0
 27 78  1  0
 28 79  1  0
 28 80  1  0
 29 81  1  0
 29 82  1  0
 30 83  1  0
 30 84  1  0
 31 85  1  0
 31 86  1  0
 32 87  1  0
 32 88  1  0
 33 89  1  0
 33 90  1  0
 34 91  1  0
 34 92  1  0
 35 93  1  0
 35 94  1  0
 36 95  1  0
 36 96  1  0
 37 97  1  0
 38 98  1  0
 43 99  1  0
 44100  1  0
 45101  1  0
 46102  1  0
 47103  1  0
 48104  1  0
 49105  1  0
 50106  1  0
M  END
> <Name>
BR010383

$$$$
BR010384
  SciTegic05062102053D

161166  0  0  1  0            999 V2000
    2.3762   -8.0567  -11.2606 C   0  0
    6.0173   -1.2726  -11.8962 C   0  0
    8.0761   -6.9342  -16.2647 C   0  0
    1.4969   -7.3208  -12.0548 C   0  0
    5.3904   -0.9907  -13.1099 C   0  0
    6.9409   -6.7817  -17.0607 C   0  0
    2.7467   -6.1149   -9.8716 C   0  0
    7.9935   -1.9936  -13.0844 C   0  0
    7.0259   -8.7855  -15.1216 C   0  0
    3.0011   -7.4538  -10.1689 C   0  0
    7.3189   -1.7740  -11.8834 C   0  0
    8.1186   -7.9362  -15.2951 C   0  0
    1.2425   -5.9820  -11.7575 C   0  0
    6.0650   -1.2104  -14.3109 C   0  0
    5.8482   -7.6311  -16.8871 C   0  0
    1.8674   -5.3790  -10.6659 C   0  0
    7.3666   -1.7118  -14.2981 C   0  0
    5.8906   -8.6330  -15.9176 C   0  0
    6.3521   -8.9716   -8.9766 C   0  0
    8.4059   -3.8305   -8.7940 C   0  0
   10.4975   -7.4097  -12.2920 C   0  0
   -0.0028   -4.0364  -16.0611 C   0  0  1  0  0  0
    4.5021    2.0743  -17.5185 C   0  0  1  0  0  0
    3.9341   -6.9159  -21.2854 C   0  0  1  0  0  0
    1.4012   -3.4377  -16.1518 C   0  0  2  0  0  0
    3.1242    2.2492  -16.8792 C   0  0  2  0  0  0
    3.9540   -5.3894  -21.2000 C   0  0  2  0  0  0
   -0.3783   -4.3384  -14.6106 C   0  0  2  0  0  0
    5.0837    0.6969  -17.2013 C   0  0  2  0  0  0
    3.8703   -7.5431  -19.8931 C   0  0  2  0  0  0
    2.3980   -4.3398  -15.4158 C   0  0  1  0  0  0
    3.2019    1.9254  -15.3832 C   0  0  1  0  0  0
    5.0703   -4.9378  -20.2519 C   0  0  1  0  0  0
    0.7216   -5.1515  -13.9243 C   0  0  1  0  0  0
    5.0232    0.4163  -15.6981 C   0  0  1  0  0  0
    4.9529   -6.9561  -18.9844 C   0  0  1  0  0  0
    2.4805   -3.1014  -10.9698 C   0  0
    7.8972   -3.2206  -16.0582 C   0  0
    3.8354   -9.0606  -14.8000 C   0  0
    3.9394   -8.2412   -9.3182 C   0  0
    7.9972   -2.0761  -10.5723 C   0  0
    9.3459   -8.1026  -14.4370 C   0  0
    5.3862   -8.1574   -9.8188 C   0  0
    7.7441   -3.5141  -10.1234 C   0  0
    9.2603   -7.2678  -13.1606 C   0  0
    3.8124   -3.7727  -15.3988 C   0  0
    1.8489    2.0065  -14.6867 C   0  0
    5.1088   -3.4270  -20.0563 C   0  0
    8.7585   -9.5605   -8.8274 C   0  0
    8.6853   -5.6875   -7.1715 C   0  0
   11.4510   -6.6059  -10.1463 C   0  0
    9.3856   -8.6806   -7.7625 C   0  0
   10.0499   -6.3072   -7.4070 C   0  0
   11.2325   -7.6895   -9.1074 C   0  0
    7.6514   -8.8763   -9.4532 N   0  0
    8.1528   -5.1258   -8.4329 N   0  0
   10.3763   -6.6463  -11.1629 N   0  0
    9.9288   -7.4488   -8.3865 N   0  3
    6.0054   -9.6282   -7.9983 O   0  0
    9.0673   -3.0135   -8.1588 O   0  0
   11.4545   -8.1183  -12.5924 O   0  0
    1.9887   -4.5080  -14.0527 O   0  0
    3.6987    0.5940  -15.1979 O   0  0
    4.8830   -5.5311  -18.9609 O   0  0
   -0.9414   -3.1303  -16.6341 O   0  0
    4.3954    2.2508  -18.9284 O   0  0
    2.8156   -7.3316  -22.0642 O   0  0
    1.3821   -2.1399  -15.5532 O   0  0
    2.2074    1.3625  -17.5244 O   0  0
    2.6869   -4.9446  -20.7103 O   0  0
   -1.5927   -5.0882  -14.6076 O   0  0
    6.4440    0.6734  -17.6325 O   0  0
    4.0742   -8.9496  -20.0241 O   0  0
    4.7187   -4.8259  -15.1241 O   0  0
    2.0649    2.1454  -13.2937 O   0  0
    6.3877   -3.0669  -19.5654 O   0  0
    0.3781   -5.2713  -12.5443 O   0  0
    5.4415   -0.9311  -15.4896 O   0  0
    4.7453   -7.4716  -17.6710 O   0  0
    1.6275   -4.0720  -10.3661 O   0  0
    8.0352   -1.9311  -15.4646 O   0  0
    4.8293   -9.4680  -15.7382 O   0  0
    2.5671   -9.0996  -11.4987 H   0  0
    5.4847   -1.0968  -10.9654 H   0  0
    8.9234   -6.2690  -16.4081 H   0  0
    1.0138   -7.7966  -12.9039 H   0  0
    4.3763   -0.6008  -13.1126 H   0  0
    6.9144   -5.9990  -17.8138 H   0  0
    3.2321   -5.6427   -9.0209 H   0  0
    9.0084   -2.3839  -13.0772 H   0  0
    7.0567   -9.5677  -14.3668 H   0  0
   -0.0474   -4.9580  -16.6552 H   0  0
    5.1787    2.8561  -17.1507 H   0  0
    4.8331   -7.2655  -21.8088 H   0  0
    1.6811   -3.3055  -17.2032 H   0  0
    2.7626    3.2697  -17.0501 H   0  0
    4.0821   -4.9632  -22.2016 H   0  0
   -0.5770   -3.4067  -14.0670 H   0  0
    4.5555   -0.0791  -17.7687 H   0  0
    2.8729   -7.4041  -19.4584 H   0  0
    2.4299   -5.3269  -15.8949 H   0  0
    3.8860    2.6255  -14.8865 H   0  0
    6.0439   -5.2578  -20.6451 H   0  0
    0.7732   -6.1662  -14.3391 H   0  0
    5.7199    1.0647  -15.1518 H   0  0
    5.9508   -7.2767  -19.3092 H   0  0
    2.1810   -2.1011  -10.6475 H   0  0
    2.4120   -3.1811  -12.0576 H   0  0
    3.5103   -3.2894  -10.6568 H   0  0
    8.4802   -3.2618  -16.9815 H   0  0
    6.8428   -3.4135  -16.2716 H   0  0
    8.2696   -3.9747  -15.3608 H   0  0
    3.0463   -9.8151  -14.7532 H   0  0
    3.4167   -8.0986  -15.1060 H   0  0
    4.2971   -8.9580  -13.8151 H   0  0
    3.8898   -7.8930   -8.2728 H   0  0
    3.6232   -9.2972   -9.2782 H   0  0
    9.0752   -1.8916  -10.6669 H   0  0
    7.6453   -1.3717   -9.8073 H   0  0
    9.4777   -9.1638  -14.1888 H   0  0
   10.2369   -7.8238  -15.0144 H   0  0
    5.7246   -7.1137   -9.8140 H   0  0
    5.4463   -8.5182  -10.8533 H   0  0
    8.1274   -4.2186  -10.8722 H   0  0
    6.6669   -3.6959  -10.0211 H   0  0
    8.3890   -7.5707  -12.5665 H   0  0
    9.1366   -6.2062  -13.4089 H   0  0
    3.9003   -3.0115  -14.6228 H   0  0
    4.0519   -3.3364  -16.3691 H   0  0
    1.2777    1.0963  -14.8726 H   0  0
    1.2916    2.8700  -15.0517 H   0  0
    4.3488   -3.1241  -19.3352 H   0  0
    4.9337   -2.9223  -21.0071 H   0  0
    9.4869   -9.8334   -9.5981 H   0  0
    8.3787  -10.4827   -8.3761 H   0  0
    7.9743   -6.4252   -6.7849 H   0  0
    8.7632   -4.8751   -6.4419 H   0  0
   11.4667   -5.6117   -9.6875 H   0  0
   12.4080   -6.7612  -10.6547 H   0  0
   10.2271   -9.1824   -7.2766 H   0  0
    8.6619   -8.3602   -7.0069 H   0  0
   10.4602   -6.7283   -6.4849 H   0  0
   10.7624   -5.5961   -7.8359 H   0  0
   12.0179   -7.6755   -8.3464 H   0  0
   11.1689   -8.6871   -9.5523 H   0  0
    7.8375   -8.3370  -10.2938 H   0  0
    7.5743   -5.7329   -8.9768 H   0  0
    9.5850   -6.0600  -10.9921 H   0  0
    9.2565   -7.1367   -9.1079 H   0  0
   -0.6766   -3.0060  -17.5588 H   0  0
    4.0592    3.1494  -19.0698 H   0  0
    2.9283   -6.9367  -22.9428 H   0  0
    2.2830   -1.7924  -15.6282 H   0  0
    1.3494    1.4996  -17.0963 H   0  0
    2.5768   -5.3467  -19.8360 H   0  0
   -1.4143   -5.9010  -15.1046 H   0  0
    6.8998    1.3729  -17.1403 H   0  0
    4.9492   -9.0637  -20.4249 H   0  0
    5.6111   -4.4398  -15.1186 H   0  0
    1.1896    2.1948  -12.8731 H   0  0
    6.3869   -2.1015  -19.4494 H   0  0
  1  4  2  0
  1 10  1  0
  2  5  2  0
  2 11  1  0
  3  6  2  0
  3 12  1  0
  4 13  1  0
  5 14  1  0
  6 15  1  0
  7 10  2  0
  7 16  1  0
  8 11  2  0
  8 17  1  0
  9 12  2  0
  9 18  1  0
 10 40  1  0
 11 41  1  0
 12 42  1  0
 13 16  2  0
 13 77  1  0
 14 17  2  0
 14 78  1  0
 15 18  2  0
 15 79  1  0
 16 80  1  0
 17 81  1  0
 18 82  1  0
 19 43  1  0
 19 55  1  0
 19 59  2  0
 20 44  1  0
 20 56  1  0
 20 60  2  0
 21 45  1  0
 21 57  1  0
 21 61  2  0
 22 25  1  0
 22 28  1  0
 22 65  1  0
 23 26  1  0
 23 29  1  0
 23 66  1  0
 24 27  1  0
 24 30  1  0
 24 67  1  0
 25 31  1  0
 25 68  1  0
 26 32  1  0
 26 69  1  0
 27 33  1  0
 27 70  1  0
 28 34  1  0
 28 71  1  0
 29 35  1  0
 29 72  1  0
 30 36  1  0
 30 73  1  0
 31 46  1  0
 31 62  1  0
 32 47  1  0
 32 63  1  0
 33 48  1  0
 33 64  1  0
 34 62  1  0
 34 77  1  0
 35 63  1  0
 35 78  1  0
 36 64  1  0
 36 79  1  0
 37 80  1  0
 38 81  1  0
 39 82  1  0
 40 43  1  0
 41 44  1  0
 42 45  1  0
 46 74  1  0
 47 75  1  0
 48 76  1  0
 49 52  1  0
 49 55  1  0
 50 53  1  0
 50 56  1  0
 51 54  1  0
 51 57  1  0
 52 58  1  0
 53 58  1  0
 54 58  1  0
  1 83  1  0
  2 84  1  0
  3 85  1  0
  4 86  1  0
  5 87  1  0
  6 88  1  0
  7 89  1  0
  8 90  1  0
  9 91  1  0
 22 92  1  0
 23 93  1  0
 24 94  1  0
 25 95  1  0
 26 96  1  0
 27 97  1  0
 28 98  1  0
 29 99  1  0
 30100  1  0
 31101  1  0
 32102  1  0
 33103  1  0
 34104  1  0
 35105  1  0
 36106  1  0
 37107  1  0
 37108  1  0
 37109  1  0
 38110  1  0
 38111  1  0
 38112  1  0
 39113  1  0
 39114  1  0
 39115  1  0
 40116  1  0
 40117  1  0
 41118  1  0
 41119  1  0
 42120  1  0
 42121  1  0
 43122  1  0
 43123  1  0
 44124  1  0
 44125  1  0
 45126  1  0
 45127  1  0
 46128  1  0
 46129  1  0
 47130  1  0
 47131  1  0
 48132  1  0
 48133  1  0
 49134  1  0
 49135  1  0
 50136  1  0
 50137  1  0
 51138  1  0
 51139  1  0
 52140  1  0
 52141  1  0
 53142  1  0
 53143  1  0
 54144  1  0
 54145  1  0
 55146  1  0
 56147  1  0
 57148  1  0
 58149  1  0
 65150  1  0
 66151  1  0
 67152  1  0
 68153  1  0
 69154  1  0
 70155  1  0
 71156  1  0
 72157  1  0
 73158  1  0
 74159  1  0
 75160  1  0
 76161  1  0
M  CHG  1  58   1
M  END
> <Name>
BR010384

$$$$
BR010385
  SciTegic05062102053D

201208  0  0  1  0            999 V2000
    0.6321    2.8246   -7.4149 C   0  0
   -5.1787    2.9299    4.9161 C   0  0
    1.4875   -5.8813    5.1616 C   0  0
    7.5788   -2.6252   -0.7181 C   0  0
    0.0458    3.0841   -8.6537 C   0  0
   -5.8986    4.0194    5.4062 C   0  0
    1.0185   -6.9793    5.8826 C   0  0
    8.9188   -2.2864   -0.5308 C   0  0
   -0.1753    0.5495   -7.5093 C   0  0
   -6.9358    2.4875    3.3181 C   0  0
    0.5295   -6.7982    3.1420 C   0  0
    7.4992   -1.2236   -2.6844 C   0  0
    0.5216    1.5572   -6.8428 C   0  0
   -5.6972    2.1639    3.8721 C   0  0
    1.2430   -5.7907    3.7913 C   0  0
    6.8690   -2.0938   -1.7950 C   0  0
   -0.6511    2.0763   -9.3202 C   0  0
   -7.1372    4.3430    4.8522 C   0  0
    0.3050   -7.9868    5.2333 C   0  0
    9.5491   -1.4161   -1.4202 C   0  0
   -0.7617    0.8089   -8.7481 C   0  0
   -7.6558    3.5770    3.8082 C   0  0
    0.0605   -7.8963    3.8630 C   0  0
    8.8393   -0.8847   -2.4970 C   0  0
    0.8294    1.3059   -2.9961 C   0  0
   -3.2048    0.2207    1.6435 C   0  0
    1.2088   -2.2712    2.1891 C   0  0
    3.0238   -1.8629   -1.4546 C   0  0
   -3.8521    4.4859  -12.1126 C   0  0  1  0  0  0
   -7.1735    8.9618    6.3304 C   0  0  1  0  0  0
   -2.4909   -9.9194    8.7414 C   0  0  2  0  0  0
   13.1128    0.6197    1.2265 C   0  0  1  0  0  0
   -4.9397    4.1475  -11.0926 C   0  0  2  0  0  0
   -6.8582    8.6432    7.7923 C   0  0  2  0  0  0
   -3.6735   -9.1322    8.1763 C   0  0  1  0  0  0
   12.2446    1.8708    1.3642 C   0  0  2  0  0  0
   -2.6848    3.5039  -12.0169 C   0  0  2  0  0  0
   -7.8578    7.7790    5.6459 C   0  0  2  0  0  0
   -1.4056  -10.1152    7.6813 C   0  0  1  0  0  0
   12.7019   -0.2020    0.0051 C   0  0  2  0  0  0
   -4.3220    4.0346   -9.6945 C   0  0  1  0  0  0
   -6.0796    7.3260    7.8794 C   0  0  1  0  0  0
   -3.1751   -7.8318    7.5372 C   0  0  2  0  0  0
   10.7630    1.4794    1.3352 C   0  0  1  0  0  0
   -2.2027    3.3747  -10.5702 C   0  0  1  0  0  0
   -7.0670    6.4889    5.8749 C   0  0  1  0  0  0
   -1.0487   -8.7811    7.0201 C   0  0  2  0  0  0
   11.1924   -0.4540    0.0044 C   0  0  1  0  0  0
   -1.5070   -1.4494   -8.7365 C   0  0
   -8.8660    4.7872    2.1568 C   0  0
   -0.8412   -8.7059    1.8168 C   0  0
    8.6483    0.4654   -4.4455 C   0  0
    1.1571    1.2761   -5.5058 C   0  0
   -4.9184    0.9885    3.3409 C   0  0
    1.7474   -4.6033    3.0128 C   0  0
    5.4221   -2.4618   -1.9989 C   0  0
    0.1988    1.5668   -4.3524 C   0  0
   -3.9847    1.3971    2.2031 C   0  0
    0.7238   -3.4697    2.9851 C   0  0
    4.4861   -1.4962   -1.2745 C   0  0
   -5.3329    3.6268   -8.6295 C   0  0
   -5.7896    6.9009    9.3139 C   0  0
   -4.2912   -7.0227    6.8876 C   0  0
    9.8294    2.6824    1.3947 C   0  0
    0.3045    1.4079   -0.5725 C   0  0
   -1.5135   -0.3240   -0.0892 C   0  0
    0.4873   -0.0039    1.4831 C   0  0
    0.7509   -1.1070   -0.8050 C   0  0
    0.0065   -0.0061    0.0037 C   0  0
   -0.0532    1.5744   -1.9562 N   0  0
   -2.3597    0.6065    0.6094 N   0  0
    0.2684   -1.2470    2.1718 N   0  0
    2.1828   -0.9766   -0.7906 N   0  0
    1.9823    0.9073   -2.8541 O   0  0
   -3.3208   -0.9269    2.0652 O   0  0
    2.3028   -2.2294    1.6326 O   0  0
    2.6472   -2.8307   -2.1103 O   0  0
   -3.2839    3.0467   -9.6986 O   0  0
   -6.8334    6.2728    7.2658 O   0  0
   -2.2139   -8.1296    6.5170 O   0  0
   10.4698    0.7705    0.1248 O   0  0
   -4.4093    4.4618  -13.4238 O   0  0
   -8.0062   10.1164    6.2669 O   0  0
   -2.9471  -11.1824    9.2177 O   0  0
   14.4814    1.0026    1.1244 O   0  0
   -5.5405    2.9046  -11.4634 O   0  0
   -8.0896    8.5316    8.5095 O   0  0
   -4.3297   -9.9385    7.1954 O   0  0
   12.5390    2.7509    0.2771 O   0  0
   -1.6181    3.9935  -12.8290 O   0  0
   -7.9276    8.0489    4.2461 O   0  0
   -0.2471  -10.6530    8.3176 O   0  0
   13.3901   -1.4515    0.0520 O   0  0
   -4.8179    3.9800   -7.3582 O   0  0
   -4.7211    5.9712    9.3028 O   0  0
   -3.8596   -5.6800    6.7573 O   0  0
    8.5501    2.2418    1.8136 O   0  0
   -1.2193    2.3426  -10.5295 O   0  0
   -7.8305    5.4096    5.3400 O   0  0
   -0.1476   -9.0542    5.9490 O   0  0
   10.8583   -1.0930   -1.2260 O   0  0
   -1.4405   -0.1830   -9.3892 O   0  0
   -8.8647    3.8828    3.2597 O   0  0
   -0.6343   -8.8744    3.2178 O   0  0
    9.4438   -0.0332   -3.3718 O   0  0
    1.1745    3.6153   -6.9036 H   0  0
   -4.2138    2.6862    5.3527 H   0  0
    2.0409   -5.1003    5.6760 H   0  0
    7.0964   -3.3052   -0.0211 H   0  0
    0.1354    4.0736   -9.0934 H   0  0
   -5.4890    4.6115    6.2199 H   0  0
    1.2128   -7.0438    6.9496 H   0  0
    9.4656   -2.7036    0.3104 H   0  0
   -0.2625   -0.4395   -7.0658 H   0  0
   -7.3421    1.8924    2.5038 H   0  0
    0.3371   -6.7297    2.0740 H   0  0
    6.9484   -0.8084   -3.5250 H   0  0
   -3.4921    5.5079  -11.9391 H   0  0
   -6.2450    9.2103    5.8009 H   0  0
   -2.0736   -9.3857    9.6047 H   0  0
   13.0207    0.0082    2.1330 H   0  0
   -5.7268    4.9096  -11.1226 H   0  0
   -6.2964    9.4711    8.2398 H   0  0
   -4.4008   -8.9339    8.9720 H   0  0
   12.5010    2.4007    2.2887 H   0  0
   -2.9742    2.5276  -12.4245 H   0  0
   -8.8898    7.6774    6.0033 H   0  0
   -1.7310  -10.8500    6.9350 H   0  0
   13.0177    0.3019   -0.9165 H   0  0
   -3.8855    4.9984   -9.4021 H   0  0
   -5.1227    7.4242    7.3505 H   0  0
   -2.6938   -7.2035    8.2979 H   0  0
   10.5347    0.8255    2.1868 H   0  0
   -1.7201    4.3017  -10.2355 H   0  0
   -6.1123    6.5154    5.3345 H   0  0
   -0.5285   -8.1227    7.7273 H   0  0
   10.9105   -1.1365    0.8161 H   0  0
   -2.0756   -2.1490   -9.3540 H   0  0
   -1.9876   -1.3332   -7.7618 H   0  0
   -0.4928   -1.8312   -8.5972 H   0  0
   -9.8919    4.9450    1.8153 H   0  0
   -8.2599    4.3752    1.3460 H   0  0
   -8.4407    5.7408    2.4786 H   0  0
   -1.4077   -9.5550    1.4266 H   0  0
    0.1250   -8.6355    1.3108 H   0  0
   -1.4061   -7.7859    1.6489 H   0  0
    9.2508    1.1321   -5.0673 H   0  0
    7.7875    1.0048   -4.0424 H   0  0
    8.2989   -0.3754   -5.0493 H   0  0
    1.4878    0.2299   -5.4706 H   0  0
    2.0706    1.8759   -5.4014 H   0  0
   -4.3449    0.5305    4.1572 H   0  0
   -5.6152    0.2115    3.0003 H   0  0
    2.6910   -4.2527    3.4505 H   0  0
    1.9967   -4.9152    1.9901 H   0  0
    5.1961   -2.4762   -3.0730 H   0  0
    5.2530   -3.4888   -1.6499 H   0  0
   -0.6989    0.9418   -4.4378 H   0  0
   -0.1254    2.6146   -4.3830 H   0  0
   -3.2657    2.1483    2.5531 H   0  0
   -4.5591    1.8475    1.3838 H   0  0
    0.5009   -3.1344    4.0058 H   0  0
   -0.2166   -3.8181    2.5401 H   0  0
    4.6307   -0.4748   -1.6483 H   0  0
    4.7068   -1.4879   -0.1997 H   0  0
   -5.4976    2.5493   -8.6636 H   0  0
   -6.2774    4.1473   -8.7917 H   0  0
   -6.6714    6.4297    9.7494 H   0  0
   -5.5050    7.7683    9.9105 H   0  0
   -5.1861   -7.0535    7.5102 H   0  0
   -4.5181   -7.4247    5.8996 H   0  0
    9.7465    3.1402    0.4084 H   0  0
   10.2085    3.4150    2.1082 H   0  0
   -0.2433    2.1755   -0.0139 H   0  0
    1.3687    1.6538   -0.4890 H   0  0
   -1.7361   -1.3180    0.3138 H   0  0
   -1.8447   -0.3239   -1.1340 H   0  0
    1.5603    0.2082    1.5471 H   0  0
   -0.0205    0.7731    2.0644 H   0  0
    0.4436   -1.1033   -1.8563 H   0  0
    0.5203   -2.1047   -0.4147 H   0  0
   -0.9791    1.9374   -2.1748 H   0  0
   -2.3613    1.5787    0.3062 H   0  0
   -0.6278   -1.3920    2.6343 H   0  0
    2.5941   -0.2237   -0.2412 H   0  0
   -5.1153    5.1266  -13.4365 H   0  0
   -7.5086   10.8393    6.6797 H   0  0
   -3.6020  -10.9973    9.9087 H   0  0
   14.6950    1.4850    1.9383 H   0  0
   -4.8303    2.2460  -11.4554 H   0  0
   -8.5849    7.8131    8.0894 H   0  0
   -5.0698   -9.4110    6.8604 H   0  0
   11.9740    3.5286    0.3959 H   0  0
   -1.3801    4.8633  -12.4739 H   0  0
   -7.0137    8.1550    3.9415 H   0  0
    0.0235  -10.0063    8.9869 H   0  0
   13.1198   -1.8825    0.8770 H   0  0
   -5.4788    3.7105   -6.6980 H   0  0
   -4.5557    5.7162   10.2264 H   0  0
   -4.5867   -5.1860    6.3417 H   0  0
    7.9746    3.0249    1.8435 H   0  0
  1  5  2  0
  1 13  1  0
  2  6  2  0
  2 14  1  0
  3  7  2  0
  3 15  1  0
  4  8  2  0
  4 16  1  0
  5 17  1  0
  6 18  1  0
  7 19  1  0
  8 20  1  0
  9 13  2  0
  9 21  1  0
 10 14  2  0
 10 22  1  0
 11 15  2  0
 11 23  1  0
 12 16  2  0
 12 24  1  0
 13 53  1  0
 14 54  1  0
 15 55  1  0
 16 56  1  0
 17 21  2  0
 17 98  1  0
 18 22  2  0
 18 99  1  0
 19 23  2  0
 19100  1  0
 20 24  2  0
 20101  1  0
 21102  1  0
 22103  1  0
 23104  1  0
 24105  1  0
 25 57  1  0
 25 70  1  0
 25 74  2  0
 26 58  1  0
 26 71  1  0
 26 75  2  0
 27 59  1  0
 27 72  1  0
 27 76  2  0
 28 60  1  0
 28 73  1  0
 28 77  2  0
 29 33  1  0
 29 37  1  0
 29 82  1  0
 30 34  1  0
 30 38  1  0
 30 83  1  0
 31 35  1  0
 31 39  1  0
 31 84  1  0
 32 36  1  0
 32 40  1  0
 32 85  1  0
 33 41  1  0
 33 86  1  0
 34 42  1  0
 34 87  1  0
 35 43  1  0
 35 88  1  0
 36 44  1  0
 36 89  1  0
 37 45  1  0
 37 90  1  0
 38 46  1  0
 38 91  1  0
 39 47  1  0
 39 92  1  0
 40 48  1  0
 40 93  1  0
 41 61  1  0
 41 78  1  0
 42 62  1  0
 42 79  1  0
 43 63  1  0
 43 80  1  0
 44 64  1  0
 44 81  1  0
 45 78  1  0
 45 98  1  0
 46 79  1  0
 46 99  1  0
 47 80  1  0
 47100  1  0
 48 81  1  0
 48101  1  0
 49102  1  0
 50103  1  0
 51104  1  0
 52105  1  0
 53 57  1  0
 54 58  1  0
 55 59  1  0
 56 60  1  0
 61 94  1  0
 62 95  1  0
 63 96  1  0
 64 97  1  0
 65 69  1  0
 65 70  1  0
 66 69  1  0
 66 71  1  0
 67 69  1  0
 67 72  1  0
 68 69  1  0
 68 73  1  0
  1106  1  0
  2107  1  0
  3108  1  0
  4109  1  0
  5110  1  0
  6111  1  0
  7112  1  0
  8113  1  0
  9114  1  0
 10115  1  0
 11116  1  0
 12117  1  0
 29118  1  0
 30119  1  0
 31120  1  0
 32121  1  0
 33122  1  0
 34123  1  0
 35124  1  0
 36125  1  0
 37126  1  0
 38127  1  0
 39128  1  0
 40129  1  0
 41130  1  0
 42131  1  0
 43132  1  0
 44133  1  0
 45134  1  0
 46135  1  0
 47136  1  0
 48137  1  0
 49138  1  0
 49139  1  0
 49140  1  0
 50141  1  0
 50142  1  0
 50143  1  0
 51144  1  0
 51145  1  0
 51146  1  0
 52147  1  0
 52148  1  0
 52149  1  0
 53150  1  0
 53151  1  0
 54152  1  0
 54153  1  0
 55154  1  0
 55155  1  0
 56156  1  0
 56157  1  0
 57158  1  0
 57159  1  0
 58160  1  0
 58161  1  0
 59162  1  0
 59163  1  0
 60164  1  0
 60165  1  0
 61166  1  0
 61167  1  0
 62168  1  0
 62169  1  0
 63170  1  0
 63171  1  0
 64172  1  0
 64173  1  0
 65174  1  0
 65175  1  0
 66176  1  0
 66177  1  0
 67178  1  0
 67179  1  0
 68180  1  0
 68181  1  0
 70182  1  0
 71183  1  0
 72184  1  0
 73185  1  0
 82186  1  0
 83187  1  0
 84188  1  0
 85189  1  0
 86190  1  0
 87191  1  0
 88192  1  0
 89193  1  0
 90194  1  0
 91195  1  0
 92196  1  0
 93197  1  0
 94198  1  0
 95199  1  0
 96200  1  0
 97201  1  0
M  END
> <Name>
BR010385

$$$$
BR010386
  SciTegic05062102053D

268275  0  0  1  0            999 V2000
   18.5070   -1.6066  -13.6591 C   0  0
   22.6339   -8.0052   -9.7899 C   0  0
   12.2400   -6.9446   -3.4924 C   0  0
   16.6536  -13.0169  -12.7055 C   0  0
   19.5282   -2.2698  -14.3394 C   0  0
   23.0494   -7.4609   -8.5748 C   0  0
   13.6288   -7.0559   -3.5566 C   0  0
   16.9218  -13.3146  -14.0415 C   0  0
   17.9345   -0.4143  -15.6810 C   0  0
   20.7978   -9.1053   -8.6694 C   0  0
   12.3921   -4.6390   -4.1982 C   0  0
   14.3381  -13.6224  -13.0355 C   0  0
   17.7101   -0.6789  -14.3300 C   0  0
   21.5080   -8.8274   -9.8373 C   0  0
   11.6215   -5.7361   -3.8133 C   0  0
   15.3617  -13.1708  -12.2024 C   0  0
   19.7527   -2.0053  -15.6904 C   0  0
   22.3391   -7.7387   -7.4069 C   0  0
   14.3994   -5.9588   -3.9416 C   0  0
   15.8982  -13.7662  -14.8746 C   0  0
   18.9558   -1.0775  -16.3612 C   0  0
   21.2133   -8.5610   -7.4542 C   0  0
   13.7810   -4.7503   -4.2624 C   0  0
   14.6063  -13.9201  -14.3715 C   0  0
   14.1563   -0.0145  -12.9573 C   0  0
   19.5922   -9.0795  -13.1870 C   0  0
    7.9535   -5.8494   -5.0328 C   0  0
   14.9600  -13.7732   -8.4037 C   0  0
   12.7236   -2.9429  -10.7514 C   0  0
   15.6656   -8.5843  -12.8313 C   0  0
    6.8780   -9.3281   -6.5282 C   0  0
   12.0920  -13.1549   -5.8086 C   0  0
   22.0778   -6.1574  -16.6275 C   0  0  1  0  0  0
   23.2301   -3.8963   -4.5259 C   0  0  2  0  0  0
   18.6580   -6.2481   -1.6374 C   0  0  2  0  0  0
   16.8435  -12.2128  -19.3715 C   0  0  2  0  0  0
   23.0683   -6.0263  -15.4701 C   0  0  2  0  0  0
   21.8442   -3.3584   -4.8832 C   0  0  1  0  0  0
   18.6383   -7.7712   -1.5045 C   0  0  1  0  0  0
   18.3593  -12.1545  -19.1801 C   0  0  1  0  0  0
   21.5741   -4.7862  -17.0771 C   0  0  2  0  0  0
   23.3047   -5.4084   -4.7450 C   0  0  1  0  0  0
   17.8196   -5.7910   -2.8324 C   0  0  1  0  0  0
   16.2093  -13.2289  -18.4201 C   0  0  1  0  0  0
   22.4486   -5.1826  -14.3506 C   0  0  1  0  0  0
   21.4592   -3.8101   -6.2958 C   0  0  2  0  0  0
   17.1907   -8.2731   -1.4873 C   0  0  2  0  0  0
   18.6885  -11.9240  -17.7015 C   0  0  2  0  0  0
   21.0731   -3.9740  -15.8807 C   0  0  1  0  0  0
   22.7986   -5.7779   -6.1420 C   0  0  2  0  0  0
   16.4274   -6.4271   -2.7911 C   0  0  2  0  0  0
   16.6796  -12.9905  -16.9825 C   0  0  2  0  0  0
   18.4552   -1.6085  -18.6247 C   0  0
   19.3737   -9.6889   -6.4545 C   0  0
   14.7915   -3.5240   -6.0318 C   0  0
   12.3071  -14.4896  -14.5839 C   0  0
   16.6165    0.0284  -13.6034 C   0  0
   21.0576   -9.4134  -11.1503 C   0  0
   10.1210   -5.6165   -3.7465 C   0  0
   15.0723  -12.8518  -10.7585 C   0  0
   15.2867   -0.7317  -13.6736 C   0  0
   20.0707   -8.4958  -11.8696 C   0  0
    9.4654   -5.9819   -5.0769 C   0  0
   15.2649  -14.0724   -9.8606 C   0  0
   12.4098   -4.4298  -10.6902 C   0  0
   14.5571   -7.6595  -12.3529 C   0  0
    7.1954  -10.4050   -7.5541 C   0  0
   11.1065  -12.3979   -6.6853 C   0  0
   23.4043   -4.9444  -13.1876 C   0  0
   20.0570   -3.3704   -6.6991 C   0  0
   17.0890   -9.7924   -1.4272 C   0  0
   20.1859  -11.9237  -17.4189 C   0  0
   11.7487   -8.3745   -9.3731 C   0  0
   11.0560   -8.7942   -8.0762 C   0  0
   11.7414   -0.2548  -12.4379 C   0  0
   18.0948   -8.5602  -15.0969 C   0  0
    5.9486   -6.1396   -6.4666 C   0  0
   14.9130  -14.8696   -6.1776 C   0  0
   11.5779   -0.7440  -11.0086 C   0  0
   16.7869   -9.3161  -14.9340 C   0  0
    5.2753   -7.4602   -6.1330 C   0  0
   13.4799  -15.2255   -5.8195 C   0  0
   13.6361   -5.3077  -10.4981 C   0  0
   14.3635   -7.6638  -10.8449 C   0  0
    8.3714  -11.2892   -7.1709 C   0  0
   10.5927  -11.1109   -6.0598 C   0  0
   12.6090   -7.1382   -9.1578 C   0  0
   10.2242  -10.0514   -8.2829 C   0  0
   12.9677   -0.7253  -13.0379 N   0  0
   18.6950   -8.2348  -13.8310 N   0  0
    7.3697   -6.1847   -6.2492 N   0  0
   15.1391  -14.8920   -7.5979 N   0  0
   11.5737   -2.1796  -10.9278 N   0  0
   15.8017   -8.5440  -14.2114 N   0  0
    5.7996   -8.5503   -6.9240 N   0  0
   12.5299  -14.3190   -6.4232 N   0  0
   13.2337   -6.7360  -10.4711 N   0  3
    9.6099  -10.4451   -6.9922 N   0  3
   14.2973    1.0626  -12.3843 O   0  0
   19.9628  -10.1690  -13.6159 O   0  0
    7.3373   -5.4867   -4.0342 O   0  0
   14.5982  -12.6699   -8.0034 O   0  0
   13.8603   -2.4906  -10.6455 O   0  0
   16.3490   -9.2646  -12.0709 O   0  0
    7.5057   -9.1903   -5.4818 O   0  0
   12.4487  -12.7599   -4.7019 O   0  0
   22.0687   -3.8986  -14.8613 O   0  0
   21.4980   -5.2403   -6.3757 O   0  0
   16.5148   -7.8465   -2.6767 O   0  0
   18.1039  -12.9629  -16.9063 O   0  0
   22.7066   -6.8313  -17.7141 O   0  0
   23.5249   -3.5808   -3.1680 O   0  0
   20.0038   -5.8028   -1.7814 O   0  0
   16.5497  -12.5543  -20.7232 O   0  0
   24.2558   -5.3967  -15.9564 O   0  0
   20.9017   -3.8634   -3.9348 O   0  0
   19.3375   -8.3340   -2.6167 O   0  0
   18.9212  -13.3934  -19.6185 O   0  0
   20.5018   -4.9815  -17.9986 O   0  0
   24.6658   -5.8156   -4.6115 O   0  0
   17.6929   -4.3708   -2.7760 O   0  0
   14.7914  -13.0818  -18.4848 O   0  0
   22.6475   -4.5746  -12.0488 O   0  0
   19.8019   -3.8243   -8.0163 O   0  0
   15.7195  -10.1535   -1.4044 O   0  0
   20.4144  -11.2552  -16.1912 O   0  0
   20.7575   -2.6624  -16.3460 O   0  0
   22.7553   -7.2010   -6.2264 O   0  0
   15.7551   -6.0805   -4.0001 O   0  0
   16.1733  -14.0534  -16.1776 O   0  0
   19.1660   -0.8102  -17.6804 O   0  0
   20.5120   -8.8402   -6.3202 O   0  0
   14.5231   -3.6717   -4.6389 O   0  0
   13.5983  -14.3595  -15.1756 O   0  0
   18.3383   -1.8202  -12.6071 H   0  0
   23.1924   -7.7820  -10.6950 H   0  0
   11.6475   -7.8050   -3.1931 H   0  0
   17.4576  -12.6673  -12.0634 H   0  0
   20.1454   -2.9910  -13.8107 H   0  0
   23.9274   -6.8216   -8.5450 H   0  0
   14.1040   -8.0000   -3.3049 H   0  0
   17.9303  -13.1921  -14.4269 H   0  0
   17.3144    0.3080  -16.2064 H   0  0
   19.9195   -9.7455   -8.7036 H   0  0
   11.9125   -3.6960   -4.4494 H   0  0
   13.3302  -13.7438  -12.6457 H   0  0
   21.2298   -6.7800  -16.3155 H   0  0
   23.9882   -3.3950   -5.1407 H   0  0
   18.2696   -5.7942   -0.7169 H   0  0
   16.4125  -11.2194  -19.1935 H   0  0
   23.3532   -7.0217  -15.1107 H   0  0
   21.8372   -2.2658   -4.7966 H   0  0
   19.1765   -8.0710   -0.5980 H   0  0
   18.7825  -11.3652  -19.8120 H   0  0
   22.3638   -4.2484  -17.6157 H   0  0
   22.7359   -5.9339   -3.9683 H   0  0
   18.3338   -6.0294   -3.7713 H   0  0
   16.4402  -14.2505  -18.7456 H   0  0
   21.5523   -5.6825  -13.9612 H   0  0
   22.1703   -3.4002   -7.0248 H   0  0
   16.6631   -7.8592   -0.6182 H   0  0
   18.2773  -10.9603  -17.3741 H   0  0
   20.1517   -4.4084  -15.4726 H   0  0
   23.4935   -5.4240   -6.9142 H   0  0
   15.8381   -6.0208   -1.9593 H   0  0
   16.2660  -12.0538  -16.5878 H   0  0
   18.7135   -1.2919  -19.6382 H   0  0
   17.3803   -1.4987  -18.4600 H   0  0
   18.7375   -2.6552  -18.4893 H   0  0
   18.9064   -9.8304   -5.4768 H   0  0
   19.6834  -10.6531   -6.8652 H   0  0
   18.6580   -9.2189   -7.1332 H   0  0
   15.3912   -2.6251   -6.1948 H   0  0
   13.8487   -3.4503   -6.5797 H   0  0
   15.3465   -4.3978   -6.3815 H   0  0
   11.5967  -14.8479  -15.3329 H   0  0
   11.9845  -13.5207  -14.1944 H   0  0
   12.3627  -15.2095  -13.7640 H   0  0
   16.8977    0.1835  -12.5482 H   0  0
   16.4827    1.0446  -14.0111 H   0  0
   21.9324   -9.6031  -11.7857 H   0  0
   20.6035  -10.3974  -10.9754 H   0  0
    9.7379   -6.2607   -2.9444 H   0  0
    9.8479   -4.5935   -3.4565 H   0  0
   15.7216  -12.0306  -10.4280 H   0  0
   14.0472  -12.4701  -10.6663 H   0  0
   15.3994   -1.7263  -13.2242 H   0  0
   14.9918   -0.8749  -14.7207 H   0  0
   20.5365   -7.5240  -12.0755 H   0  0
   19.1926   -8.3128  -11.2376 H   0  0
    9.7099   -7.0162   -5.3494 H   0  0
    9.8424   -5.3326   -5.8770 H   0  0
   16.2992  -14.4327   -9.9262 H   0  0
   14.6100  -14.8903  -10.1862 H   0  0
   11.8708   -4.7169  -11.6012 H   0  0
   11.7308   -4.5820   -9.8424 H   0  0
   13.6238   -7.9312  -12.8607 H   0  0
   14.8234   -6.6442  -12.6713 H   0  0
    7.3737   -9.9286   -8.5257 H   0  0
    6.3005  -11.0315   -7.6523 H   0  0
   10.2714  -13.0627   -6.9370 H   0  0
   11.6271  -12.1528   -7.6192 H   0  0
   24.0991   -4.1406  -13.4336 H   0  0
   23.9611   -5.8561  -12.9685 H   0  0
   19.9847   -2.2825   -6.6737 H   0  0
   19.3201   -3.8027   -6.0211 H   0  0
   17.5735  -10.1639   -0.5235 H   0  0
   17.5624  -10.2339   -2.3049 H   0  0
   20.7166  -11.4020  -18.2161 H   0  0
   20.5525  -12.9481  -17.3437 H   0  0
   10.9942   -8.1729  -10.1437 H   0  0
   12.3702   -9.2004   -9.7411 H   0  0
   10.4142   -7.9778   -7.7220 H   0  0
   11.8093   -8.9704   -7.2982 H   0  0
   11.7517    0.8386  -12.4870 H   0  0
   10.9184   -0.6238  -13.0579 H   0  0
   17.9485   -7.6213  -15.6404 H   0  0
   18.8167   -9.1721  -15.6467 H   0  0
    5.5502   -5.3228   -5.8564 H   0  0
    5.7928   -5.8942   -7.5217 H   0  0
   15.6235  -15.5669   -5.7224 H   0  0
   15.1469  -13.8581   -5.8312 H   0  0
   12.4081   -0.3898  -10.3897 H   0  0
   10.6408   -0.3869  -10.5696 H   0  0
   16.3583   -9.5472  -15.9140 H   0  0
   16.9338  -10.2544  -14.3894 H   0  0
    5.4430   -7.7161   -5.0822 H   0  0
    4.1961   -7.4138   -6.3110 H   0  0
   13.2381  -16.2305   -6.1789 H   0  0
   13.3204  -15.1963   -4.7368 H   0  0
   14.3659   -5.1970  -11.3055 H   0  0
   14.1192   -5.1046   -9.5380 H   0  0
   14.1065   -8.6529  -10.4545 H   0  0
   15.2540   -7.2884  -10.3325 H   0  0
    8.2101  -11.8223   -6.2293 H   0  0
    8.5987  -12.0075   -7.9637 H   0  0
   10.0704  -11.2800   -5.1135 H   0  0
   11.4060  -10.3959   -5.9061 H   0  0
   12.0199   -6.2838   -8.8117 H   0  0
   13.4303   -7.3265   -8.4602 H   0  0
   10.8342  -10.8967   -8.6150 H   0  0
    9.4039   -9.8890   -8.9883 H   0  0
   12.9385   -1.5924  -13.5663 H   0  0
   18.4210   -7.3658  -13.3757 H   0  0
    7.9701   -6.4390   -7.0318 H   0  0
   15.4067  -15.7745   -8.0304 H   0  0
   10.6777   -2.6587  -11.0087 H   0  0
   15.1818   -7.9495  -14.7537 H   0  0
    5.3491   -8.7430   -7.8139 H   0  0
   12.1698  -14.5605   -7.3419 H   0  0
   12.5022   -6.8718  -11.1896 H   0  0
    9.3005   -9.5825   -6.5118 H   0  0
   22.9703   -7.7039  -17.3829 H   0  0
   23.4996   -2.6139   -3.0970 H   0  0
   20.4761   -6.0871   -0.9835 H   0  0
   16.9422  -11.8603  -21.2754 H   0  0
   24.8577   -5.3303  -15.2005 H   0  0
   20.9356   -4.8289   -4.0051 H   0  0
   18.8660   -8.0419   -3.4107 H   0  0
   19.8777  -13.3213  -19.4835 H   0  0
   19.8160   -5.4725  -17.5211 H   0  0
   25.1640   -5.3341   -5.2893 H   0  0
   17.2538   -4.1675   -1.9362 H   0  0
   14.5972  -12.1720  -18.2127 H   0  0
   23.2777   -4.4287  -11.3230 H   0  0
   18.9043   -3.5322   -8.2496 H   0  0
   15.6814  -11.1243   -1.3662 H   0  0
   21.3738  -11.2683  -16.0338 H   0  0
  1  5  2  0
  1 13  1  0
  2  6  2  0
  2 14  1  0
  3  7  2  0
  3 15  1  0
  4  8  2  0
  4 16  1  0
  5 17  1  0
  6 18  1  0
  7 19  1  0
  8 20  1  0
  9 13  2  0
  9 21  1  0
 10 14  2  0
 10 22  1  0
 11 15  2  0
 11 23  1  0
 12 16  2  0
 12 24  1  0
 13 57  1  0
 14 58  1  0
 15 59  1  0
 16 60  1  0
 17 21  2  0
 17127  1  0
 18 22  2  0
 18128  1  0
 19 23  2  0
 19129  1  0
 20 24  2  0
 20130  1  0
 21131  1  0
 22132  1  0
 23133  1  0
 24134  1  0
 25 61  1  0
 25 89  1  0
 25 99  2  0
 26 62  1  0
 26 90  1  0
 26100  2  0
 27 63  1  0
 27 91  1  0
 27101  2  0
 28 64  1  0
 28 92  1  0
 28102  2  0
 29 65  1  0
 29 93  1  0
 29103  2  0
 30 66  1  0
 30 94  1  0
 30104  2  0
 31 67  1  0
 31 95  1  0
 31105  2  0
 32 68  1  0
 32 96  1  0
 32106  2  0
 33 37  1  0
 33 41  1  0
 33111  1  0
 34 38  1  0
 34 42  1  0
 34112  1  0
 35 39  1  0
 35 43  1  0
 35113  1  0
 36 40  1  0
 36 44  1  0
 36114  1  0
 37 45  1  0
 37115  1  0
 38 46  1  0
 38116  1  0
 39 47  1  0
 39117  1  0
 40 48  1  0
 40118  1  0
 41 49  1  0
 41119  1  0
 42 50  1  0
 42120  1  0
 43 51  1  0
 43121  1  0
 44 52  1  0
 44122  1  0
 45 69  1  0
 45107  1  0
 46 70  1  0
 46108  1  0
 47 71  1  0
 47109  1  0
 48 72  1  0
 48110  1  0
 49107  1  0
 49127  1  0
 50108  1  0
 50128  1  0
 51109  1  0
 51129  1  0
 52110  1  0
 52130  1  0
 53131  1  0
 54132  1  0
 55133  1  0
 56134  1  0
 57 61  1  0
 58 62  1  0
 59 63  1  0
 60 64  1  0
 65 83  1  0
 66 84  1  0
 67 85  1  0
 68 86  1  0
 69123  1  0
 70124  1  0
 71125  1  0
 72126  1  0
 73 74  1  0
 73 87  1  0
 74 88  1  0
 75 79  1  0
 75 89  1  0
 76 80  1  0
 76 90  1  0
 77 81  1  0
 77 91  1  0
 78 82  1  0
 78 92  1  0
 79 93  1  0
 80 94  1  0
 81 95  1  0
 82 96  1  0
 83 97  1  0
 84 97  1  0
 85 98  1  0
 86 98  1  0
 87 97  1  0
 88 98  1  0
  1135  1  0
  2136  1  0
  3137  1  0
  4138  1  0
  5139  1  0
  6140  1  0
  7141  1  0
  8142  1  0
  9143  1  0
 10144  1  0
 11145  1  0
 12146  1  0
 33147  1  0
 34148  1  0
 35149  1  0
 36150  1  0
 37151  1  0
 38152  1  0
 39153  1  0
 40154  1  0
 41155  1  0
 42156  1  0
 43157  1  0
 44158  1  0
 45159  1  0
 46160  1  0
 47161  1  0
 48162  1  0
 49163  1  0
 50164  1  0
 51165  1  0
 52166  1  0
 53167  1  0
 53168  1  0
 53169  1  0
 54170  1  0
 54171  1  0
 54172  1  0
 55173  1  0
 55174  1  0
 55175  1  0
 56176  1  0
 56177  1  0
 56178  1  0
 57179  1  0
 57180  1  0
 58181  1  0
 58182  1  0
 59183  1  0
 59184  1  0
 60185  1  0
 60186  1  0
 61187  1  0
 61188  1  0
 62189  1  0
 62190  1  0
 63191  1  0
 63192  1  0
 64193  1  0
 64194  1  0
 65195  1  0
 65196  1  0
 66197  1  0
 66198  1  0
 67199  1  0
 67200  1  0
 68201  1  0
 68202  1  0
 69203  1  0
 69204  1  0
 70205  1  0
 70206  1  0
 71207  1  0
 71208  1  0
 72209  1  0
 72210  1  0
 73211  1  0
 73212  1  0
 74213  1  0
 74214  1  0
 75215  1  0
 75216  1  0
 76217  1  0
 76218  1  0
 77219  1  0
 77220  1  0
 78221  1  0
 78222  1  0
 79223  1  0
 79224  1  0
 80225  1  0
 80226  1  0
 81227  1  0
 81228  1  0
 82229  1  0
 82230  1  0
 83231  1  0
 83232  1  0
 84233  1  0
 84234  1  0
 85235  1  0
 85236  1  0
 86237  1  0
 86238  1  0
 87239  1  0
 87240  1  0
 88241  1  0
 88242  1  0
 89243  1  0
 90244  1  0
 91245  1  0
 92246  1  0
 93247  1  0
 94248  1  0
 95249  1  0
 96250  1  0
 97251  1  0
 98252  1  0
111253  1  0
112254  1  0
113255  1  0
114256  1  0
115257  1  0
116258  1  0
117259  1  0
118260  1  0
119261  1  0
120262  1  0
121263  1  0
122264  1  0
123265  1  0
124266  1  0
125267  1  0
126268  1  0
M  CHG  2  97   1  98   1
M  END
> <Name>
BR010386

$$$$
BR010387
  SciTegic05062102053D

292299  0  0  1  0            999 V2000
   -0.9541   -0.1683    7.6414 C   0  0
   -1.3734    7.4084   -2.3800 C   0  0
   -8.3009   -0.6051   -3.8577 C   0  0
    0.7166   -1.6447    3.3559 C   0  0
   -1.1142   -1.4842    7.2075 C   0  0
   -1.4570    6.4451   -3.3853 C   0  0
   -8.4351    0.7770   -3.9896 C   0  0
    1.7916   -1.0526    4.0186 C   0  0
   -2.7156    0.5390    6.1468 C   0  0
    1.0356    7.2255   -2.4050 C   0  0
  -10.4946   -0.7223   -2.8523 C   0  0
    2.2479   -2.6967    1.8114 C   0  0
   -1.7548    0.8433    7.1111 C   0  0
   -0.1271    7.7987   -1.8899 C   0  0
   -9.3306   -1.3548   -3.2890 C   0  0
    0.9447   -2.4668    2.2523 C   0  0
   -2.0750   -1.7886    6.2432 C   0  0
   -0.2943    5.8719   -3.9004 C   0  0
   -9.5991    1.4095   -3.5529 C   0  0
    3.0949   -1.2825    3.5777 C   0  0
   -2.8757   -0.7770    5.7128 C   0  0
    0.9520    6.2621   -3.4103 C   0  0
  -10.6289    0.6598   -2.9842 C   0  0
    3.3230   -2.1046    2.4741 C   0  0
   -0.3642    4.4506    7.2058 C   0  0
    0.0039    9.2513    1.6916 C   0  0
   -9.5897   -5.0920   -4.2487 C   0  0
   -1.7164   -5.1435    1.4103 C   0  0
    4.2349    6.6218    6.3222 C   0  0
    3.6787    8.6152    3.0629 C   0  0
   -6.8948   -6.1995   -5.5033 C   0  0
   -2.7741   -7.0409   -1.8491 C   0  0
   -3.6770   -6.2842    7.1050 C   0  0  1  0  0  0
   -1.3365    1.3230   -5.2233 C   0  0  2  0  0  0
   -8.1656    5.9610   -2.5145 C   0  0  1  0  0  0
    5.8338   -0.6574    7.5734 C   0  0  2  0  0  0
   -2.3890   -6.7658    7.7735 C   0  0  2  0  0  0
   -2.8166    1.5950   -5.4938 C   0  0  1  0  0  0
   -8.1737    5.5853   -1.0323 C   0  0  2  0  0  0
    5.9279   -2.1784    7.6975 C   0  0  1  0  0  0
   -3.3968   -5.1347    6.1374 C   0  0  2  0  0  0
   -0.5067    2.5982   -5.3816 C   0  0  1  0  0  0
   -9.0705    5.0306   -3.3217 C   0  0  2  0  0  0
    5.5065   -0.2435    6.1376 C   0  0  1  0  0  0
   -1.6548   -5.5761    8.4016 C   0  0  1  0  0  0
   -3.2953    2.7692   -4.6336 C   0  0  2  0  0  0
   -7.8509    4.0955   -0.8735 C   0  0  1  0  0  0
    4.6612   -2.8260    7.1283 C   0  0  2  0  0  0
   -2.5695   -4.0424    6.8189 C   0  0  1  0  0  0
   -1.1200    3.7461   -4.5750 C   0  0  2  0  0  0
   -8.7483    3.5653   -3.0199 C   0  0  1  0  0  0
    4.2950   -1.0198    5.6140 C   0  0  2  0  0  0
   -3.4070   -0.9989    3.4054 C   0  0
    3.3273    6.1626   -3.3499 C   0  0
  -12.7741    0.4286   -1.9839 C   0  0
    5.1118   -1.4375    1.0560 C   0  0
   -1.5836    2.2645    7.5816 C   0  0
   -0.0365    8.8412   -0.8058 C   0  0
   -9.1868   -2.8481   -3.1488 C   0  0
   -0.2165   -3.1085    1.5379 C   0  0
   -0.5626    3.0211    6.7340 C   0  0
   -0.0684    8.2130    0.5862 C   0  0
   -9.7105   -3.5842   -4.3806 C   0  0
   -0.5593   -4.4742    2.1303 C   0  0
    5.3779    5.6958    5.9362 C   0  0
    5.1182    8.2962    2.6897 C   0  0
   -5.7366   -6.1134   -4.5215 C   0  0
   -1.9169   -6.3058   -2.8678 C   0  0
   -0.3205   -5.9642    9.0272 C   0  0
   -4.7475    3.1472   -4.8990 C   0  0
   -7.9111    3.6257    0.5750 C   0  0
    4.7099   -4.3489    7.1526 C   0  0
   -0.2553    1.5515    0.2838 C   0  0
   -0.6399    0.1365   -0.1542 C   0  0
    1.1178    1.6277    0.9577 C   0  0
   -2.0049    0.1224   -0.8481 C   0  0
    1.5135    3.0464    1.3736 C   0  0
   -2.3714   -1.2865   -1.3190 C   0  0
    2.9055    3.0692    2.0118 C   0  0
   -3.7333   -1.3607   -2.0157 C   0  0
    3.2837    4.4825    2.4645 C   0  0
   -4.1896   -2.7618   -2.4392 C   0  0
    0.9336    6.4969    6.6694 C   0  0
    1.4785   11.0514    2.5546 C   0  0
  -10.0679   -7.1825   -5.4979 C   0  0
   -3.0741   -7.2206    1.4543 C   0  0
    2.1094    6.6147    7.6246 C   0  0
    2.2523   10.5380    3.7572 C   0  0
   -8.7842   -7.7031   -6.1223 C   0  0
   -2.5882   -8.1653    0.3680 C   0  0
    6.0128    6.0315    4.5962 C   0  0
    5.3502    6.8362    2.3347 C   0  0
   -4.9032   -4.8500   -4.6659 C   0  0
   -2.6882   -5.8302   -4.0886 C   0  0
    4.6667    4.5667    3.0982 C   0  0
   -3.2478   -3.5116   -3.3736 C   0  0
    0.5670    5.1275    6.4263 N   0  0
    1.1712   10.0030    1.6191 N   0  0
  -10.0696   -5.7494   -5.3758 N   0  0
   -2.0179   -6.3848    1.9590 N   0  0
    3.2945    5.9698    7.1066 N   0  0
    3.5200    9.9570    3.3776 N   0  0
   -7.6224   -7.3681   -5.3307 N   0  0
   -2.0250   -7.4532   -0.7566 N   0  0
    4.9730    5.9585    3.5039 N   0  3
   -3.7711   -4.8660   -3.6669 N   0  3
   -0.9620    4.9334    8.1638 O   0  0
   -0.8723    9.3946    2.5403 O   0  0
   -9.1229   -5.6468   -3.2574 O   0  0
   -2.3027   -4.6352    0.4583 O   0  0
    4.1782    7.7995    5.9790 O   0  0
    2.7833    7.7749    3.0679 O   0  0
   -7.1419   -5.3259   -6.3302 O   0  0
   -3.9796   -7.2254   -1.9926 O   0  0
   -1.3856   -4.5861    7.4009 O   0  0
   -2.4961    3.9272   -4.9047 O   0  0
   -8.7921    3.3109   -1.6166 O   0  0
    4.4826   -2.4260    5.7640 O   0  0
   -4.2865   -7.3714    6.4144 O   0  0
   -0.8687    0.3173   -6.1177 O   0  0
   -8.5920    7.3125   -2.6622 O   0  0
    7.0655   -0.0716    7.9857 O   0  0
   -1.5639   -7.3811    6.7816 O   0  0
   -2.9759    1.9074   -6.8794 O   0  0
   -9.4703    5.8641   -0.4993 O   0  0
    7.0742   -2.6243    6.9695 O   0  0
   -4.6459   -4.5882    5.7153 O   0  0
    0.8133    2.3378   -4.9060 O   0  0
   -8.8547    5.2864   -4.7091 O   0  0
    5.2141    1.1532    6.1277 O   0  0
    0.0585   -4.9556    9.9465 O   0  0
   -5.0955    4.2283   -4.0525 O   0  0
   -7.1838    2.4155    0.6886 O   0  0
    3.3857   -4.8452    7.0721 O   0  0
   -2.2214   -3.0778    5.8278 O   0  0
   -0.3896    4.9319   -4.8820 O   0  0
   -9.7178    2.7600   -3.6873 O   0  0
    4.1363   -0.6982    4.2336 O   0  0
   -3.8168   -1.0619    4.7700 O   0  0
    2.0943    5.7089   -3.9049 O   0  0
  -11.7700    1.2664   -2.5532 O   0  0
    4.5912   -2.3359    2.0338 O   0  0
   -0.2041    0.0593    8.3942 H   0  0
   -2.2843    7.8507   -1.9858 H   0  0
   -7.3912   -1.0896   -4.2022 H   0  0
   -0.2952   -1.4613    3.7074 H   0  0
   -0.4869   -2.2672    7.6245 H   0  0
   -2.4310    6.1454   -3.7622 H   0  0
   -7.6290    1.3549   -4.4331 H   0  0
    1.6068   -0.4130    4.8772 H   0  0
   -3.3414    1.3256    5.7321 H   0  0
    2.0084    7.5284   -2.0251 H   0  0
  -11.2991   -1.3044   -2.4092 H   0  0
    2.4285   -3.3376    0.9518 H   0  0
   -4.3887   -5.9570    7.8735 H   0  0
   -1.2159    0.9261   -4.2073 H   0  0
   -7.1398    5.9075   -2.9006 H   0  0
    5.0592   -0.2808    8.2534 H   0  0
   -2.6230   -7.5323    8.5212 H   0  0
   -3.4018    0.6895   -5.2964 H   0  0
   -7.4578    6.2108   -0.4870 H   0  0
    6.0823   -2.4557    8.7467 H   0  0
   -2.8917   -5.5085    5.2384 H   0  0
   -0.4180    2.8652   -6.4417 H   0  0
  -10.1249    5.2527   -3.1164 H   0  0
    6.3793   -0.3923    5.4905 H   0  0
   -2.2804   -5.1229    9.1814 H   0  0
   -3.1953    2.5169   -3.5699 H   0  0
   -6.8439    3.8902   -1.2592 H   0  0
    3.7854   -2.5014    7.7051 H   0  0
   -3.1609   -3.5265    7.5859 H   0  0
   -1.0146    3.5650   -3.4978 H   0  0
   -7.7633    3.2922   -3.4193 H   0  0
    3.3791   -0.7076    6.1315 H   0  0
   -4.2518   -1.2478    2.7586 H   0  0
   -2.5866   -1.7012    3.2376 H   0  0
   -3.0670    0.0153    3.1828 H   0  0
    4.1583    5.6421   -3.8321 H   0  0
    3.3369    5.9688   -2.2743 H   0  0
    3.4222    7.2368   -3.5255 H   0  0
  -13.6297    1.0377   -1.6821 H   0  0
  -12.3636   -0.0966   -1.1179 H   0  0
  -13.0945   -0.3006   -2.7317 H   0  0
    6.1297   -1.7348    0.7922 H   0  0
    5.1101   -0.4207    1.4566 H   0  0
    4.4806   -1.4771    0.1651 H   0  0
   -2.5536    2.7778    7.5561 H   0  0
   -1.2784    2.2667    8.6361 H   0  0
    0.8824    9.4271   -0.9374 H   0  0
   -0.8601    9.5584   -0.9180 H   0  0
   -8.1323   -3.0995   -2.9757 H   0  0
   -9.7197   -3.1844   -2.2499 H   0  0
   -1.0886   -2.4436    1.5862 H   0  0
    0.0193   -3.2058    0.4702 H   0  0
   -0.8853    3.0490    5.6857 H   0  0
    0.4091    2.5124    6.7661 H   0  0
    0.7751    7.5223    0.7105 H   0  0
   -0.9907    7.6340    0.7204 H   0  0
   -9.1540   -3.2737   -5.2737 H   0  0
  -10.7667   -3.3391   -4.5488 H   0  0
   -0.8288   -4.3721    3.1890 H   0  0
    0.3101   -5.1412    2.0746 H   0  0
    5.0139    4.6613    5.9404 H   0  0
    6.1412    5.7810    6.7193 H   0  0
    5.7746    8.6001    3.5140 H   0  0
    5.3712    8.9150    1.8202 H   0  0
   -5.1069   -7.0040   -4.6358 H   0  0
   -6.1659   -6.1392   -3.5124 H   0  0
   -1.0858   -6.9555   -3.1676 H   0  0
   -1.4880   -5.4334   -2.3597 H   0  0
    0.4436   -6.0509    8.2538 H   0  0
   -0.4171   -6.9136    9.5551 H   0  0
   -5.3994    2.2994   -4.6851 H   0  0
   -4.8708    3.4511   -5.9391 H   0  0
   -8.9468    3.4512    0.8685 H   0  0
   -7.4657    4.3753    1.2300 H   0  0
    5.1668   -4.6935    8.0811 H   0  0
    5.2843   -4.7183    6.3023 H   0  0
   -1.0047    1.9225    0.9940 H   0  0
   -0.2787    2.2260   -0.5808 H   0  0
   -0.6667   -0.5250    0.7201 H   0  0
    0.1148   -0.2618   -0.8413 H   0  0
    1.0968    0.9869    1.8481 H   0  0
    1.8798    1.2115    0.2875 H   0  0
   -2.7643    0.4951   -0.1517 H   0  0
   -1.9871    0.8043   -1.7068 H   0  0
    0.7769    3.4397    2.0845 H   0  0
    1.5105    3.7090    0.5010 H   0  0
   -1.6099   -1.6360   -2.0276 H   0  0
   -2.3431   -1.9815   -0.4720 H   0  0
    3.6375    2.6964    1.2865 H   0  0
    2.9258    2.3907    2.8731 H   0  0
   -3.7108   -0.7049   -2.8945 H   0  0
   -4.4954   -0.9393   -1.3477 H   0  0
    2.5494    4.8290    3.2021 H   0  0
    3.2230    5.1708    1.6123 H   0  0
   -5.1714   -2.6688   -2.9213 H   0  0
   -4.3538   -3.3748   -1.5452 H   0  0
    1.1595    6.9521    5.6998 H   0  0
    0.0549    6.9944    7.0916 H   0  0
    2.0432   11.8173    2.0136 H   0  0
    0.5260   11.4834    2.8769 H   0  0
  -10.2211   -7.5962   -4.4961 H   0  0
  -10.9258   -7.4527   -6.1214 H   0  0
   -3.4909   -7.7700    2.3044 H   0  0
   -3.8471   -6.5558    1.0563 H   0  0
    2.3614    7.6672    7.7871 H   0  0
    1.8832    6.1583    8.5936 H   0  0
    2.4690   11.3594    4.4471 H   0  0
    1.6875    9.7712    4.2971 H   0  0
   -8.8162   -8.7943   -6.2002 H   0  0
   -8.6310   -7.2881   -7.1237 H   0  0
   -1.8037   -8.8206    0.7588 H   0  0
   -3.4037   -8.7888   -0.0124 H   0  0
    6.4338    7.0409    4.5689 H   0  0
    6.7874    5.3050    4.3345 H   0  0
    4.7486    6.5077    1.4821 H   0  0
    6.4076    6.6435    2.1322 H   0  0
   -4.4521   -4.7523   -5.6578 H   0  0
   -5.4977   -3.9588   -4.4451 H   0  0
   -2.0556   -5.3041   -4.8097 H   0  0
   -3.1930   -6.6640   -4.5849 H   0  0
    5.4564    4.2506    2.4104 H   0  0
    4.7148    3.9602    4.0073 H   0  0
   -2.2694   -3.6511   -2.9039 H   0  0
   -3.1099   -3.0036   -4.3317 H   0  0
    1.0376    4.6279    5.6737 H   0  0
    1.8562    9.7831    0.8980 H   0  0
  -10.4724   -5.2007   -6.1336 H   0  0
   -1.4483   -6.7371    2.7266 H   0  0
    3.4313    4.9888    7.3323 H   0  0
    4.3277   10.5723    3.3476 H   0  0
   -7.3326   -8.0321   -4.6186 H   0  0
   -1.0289   -7.2548   -0.7349 H   0  0
    4.1115    6.3707    3.9030 H   0  0
   -4.1692   -5.2504   -2.7921 H   0  0
   -4.4747   -8.0511    7.0801 H   0  0
   -1.4032   -0.4740   -5.9480 H   0  0
   -7.9633    7.8569   -2.1632 H   0  0
    7.2023   -0.3361    8.9087 H   0  0
   -0.7611   -7.6726    7.2383 H   0  0
   -2.4354    2.6939   -7.0449 H   0  0
   -9.4391    5.6154    0.4363 H   0  0
    7.1024   -3.5873    7.0695 H   0  0
   -5.0935   -4.2766    6.5165 H   0  0
    0.7246    2.0859   -3.9743 H   0  0
   -7.9178    5.1053   -4.8788 H   0  0
    4.4534    1.2785    6.7150 H   0  0
    0.9098   -5.2256   10.3309 H   0  0
   -6.0234    4.4500   -4.2403 H   0  0
   -7.2371    2.1372    1.6187 H   0  0
    3.4435   -5.8156    7.0893 H   0  0
  1  5  2  0
  1 13  1  0
  2  6  2  0
  2 14  1  0
  3  7  2  0
  3 15  1  0
  4  8  2  0
  4 16  1  0
  5 17  1  0
  6 18  1  0
  7 19  1  0
  8 20  1  0
  9 13  2  0
  9 21  1  0
 10 14  2  0
 10 22  1  0
 11 15  2  0
 11 23  1  0
 12 16  2  0
 12 24  1  0
 13 57  1  0
 14 58  1  0
 15 59  1  0
 16 60  1  0
 17 21  2  0
 17135  1  0
 18 22  2  0
 18136  1  0
 19 23  2  0
 19137  1  0
 20 24  2  0
 20138  1  0
 21139  1  0
 22140  1  0
 23141  1  0
 24142  1  0
 25 61  1  0
 25 97  1  0
 25107  2  0
 26 62  1  0
 26 98  1  0
 26108  2  0
 27 63  1  0
 27 99  1  0
 27109  2  0
 28 64  1  0
 28100  1  0
 28110  2  0
 29 65  1  0
 29101  1  0
 29111  2  0
 30 66  1  0
 30102  1  0
 30112  2  0
 31 67  1  0
 31103  1  0
 31113  2  0
 32 68  1  0
 32104  1  0
 32114  2  0
 33 37  1  0
 33 41  1  0
 33119  1  0
 34 38  1  0
 34 42  1  0
 34120  1  0
 35 39  1  0
 35 43  1  0
 35121  1  0
 36 40  1  0
 36 44  1  0
 36122  1  0
 37 45  1  0
 37123  1  0
 38 46  1  0
 38124  1  0
 39 47  1  0
 39125  1  0
 40 48  1  0
 40126  1  0
 41 49  1  0
 41127  1  0
 42 50  1  0
 42128  1  0
 43 51  1  0
 43129  1  0
 44 52  1  0
 44130  1  0
 45 69  1  0
 45115  1  0
 46 70  1  0
 46116  1  0
 47 71  1  0
 47117  1  0
 48 72  1  0
 48118  1  0
 49115  1  0
 49135  1  0
 50116  1  0
 50136  1  0
 51117  1  0
 51137  1  0
 52118  1  0
 52138  1  0
 53139  1  0
 54140  1  0
 55141  1  0
 56142  1  0
 57 61  1  0
 58 62  1  0
 59 63  1  0
 60 64  1  0
 65 91  1  0
 66 92  1  0
 67 93  1  0
 68 94  1  0
 69131  1  0
 70132  1  0
 71133  1  0
 72134  1  0
 73 74  1  0
 73 75  1  0
 74 76  1  0
 75 77  1  0
 76 78  1  0
 77 79  1  0
 78 80  1  0
 79 81  1  0
 80 82  1  0
 81 95  1  0
 82 96  1  0
 83 87  1  0
 83 97  1  0
 84 88  1  0
 84 98  1  0
 85 89  1  0
 85 99  1  0
 86 90  1  0
 86100  1  0
 87101  1  0
 88102  1  0
 89103  1  0
 90104  1  0
 91105  1  0
 92105  1  0
 93106  1  0
 94106  1  0
 95105  1  0
 96106  1  0
  1143  1  0
  2144  1  0
  3145  1  0
  4146  1  0
  5147  1  0
  6148  1  0
  7149  1  0
  8150  1  0
  9151  1  0
 10152  1  0
 11153  1  0
 12154  1  0
 33155  1  0
 34156  1  0
 35157  1  0
 36158  1  0
 37159  1  0
 38160  1  0
 39161  1  0
 40162  1  0
 41163  1  0
 42164  1  0
 43165  1  0
 44166  1  0
 45167  1  0
 46168  1  0
 47169  1  0
 48170  1  0
 49171  1  0
 50172  1  0
 51173  1  0
 52174  1  0
 53175  1  0
 53176  1  0
 53177  1  0
 54178  1  0
 54179  1  0
 54180  1  0
 55181  1  0
 55182  1  0
 55183  1  0
 56184  1  0
 56185  1  0
 56186  1  0
 57187  1  0
 57188  1  0
 58189  1  0
 58190  1  0
 59191  1  0
 59192  1  0
 60193  1  0
 60194  1  0
 61195  1  0
 61196  1  0
 62197  1  0
 62198  1  0
 63199  1  0
 63200  1  0
 64201  1  0
 64202  1  0
 65203  1  0
 65204  1  0
 66205  1  0
 66206  1  0
 67207  1  0
 67208  1  0
 68209  1  0
 68210  1  0
 69211  1  0
 69212  1  0
 70213  1  0
 70214  1  0
 71215  1  0
 71216  1  0
 72217  1  0
 72218  1  0
 73219  1  0
 73220  1  0
 74221  1  0
 74222  1  0
 75223  1  0
 75224  1  0
 76225  1  0
 76226  1  0
 77227  1  0
 77228  1  0
 78229  1  0
 78230  1  0
 79231  1  0
 79232  1  0
 80233  1  0
 80234  1  0
 81235  1  0
 81236  1  0
 82237  1  0
 82238  1  0
 83239  1  0
 83240  1  0
 84241  1  0
 84242  1  0
 85243  1  0
 85244  1  0
 86245  1  0
 86246  1  0
 87247  1  0
 87248  1  0
 88249  1  0
 88250  1  0
 89251  1  0
 89252  1  0
 90253  1  0
 90254  1  0
 91255  1  0
 91256  1  0
 92257  1  0
 92258  1  0
 93259  1  0
 93260  1  0
 94261  1  0
 94262  1  0
 95263  1  0
 95264  1  0
 96265  1  0
 96266  1  0
 97267  1  0
 98268  1  0
 99269  1  0
100270  1  0
101271  1  0
102272  1  0
103273  1  0
104274  1  0
105275  1  0
106276  1  0
119277  1  0
120278  1  0
121279  1  0
122280  1  0
123281  1  0
124282  1  0
125283  1  0
126284  1  0
127285  1  0
128286  1  0
129287  1  0
130288  1  0
131289  1  0
132290  1  0
133291  1  0
134292  1  0
M  CHG  2 105   1 106   1
M  END
> <Name>
BR010387

$$$$
BR010388
  SciTegic05062102053D

276283  0  0  1  0            999 V2000
    6.3456  -13.1181   15.6141 C   0  0
   -2.1033  -13.0247   16.8601 C   0  0
   -0.6882    0.9199   18.9924 C   0  0
   -2.6030   -8.3330    9.9957 C   0  0
    5.5664  -14.1467   15.0843 C   0  0
   -2.2453  -12.8861   18.2407 C   0  0
   -1.8502    0.2678   19.4047 C   0  0
   -2.5222   -9.1587    8.8744 C   0  0
    8.2678  -13.9563   14.4143 C   0  0
   -2.5686  -10.6711   16.5758 C   0  0
    0.6410   -0.6383   20.2738 C   0  0
   -1.9575   -6.4362    8.6456 C   0  0
    7.6963  -13.0229   15.2790 C   0  0
   -2.2649  -11.9172   16.0276 C   0  0
    0.5574    0.4668   19.4269 C   0  0
   -2.3207   -6.9718    9.8813 C   0  0
    6.1380  -15.0801   14.2196 C   0  0
   -2.5491  -11.6399   18.7889 C   0  0
   -1.7667   -0.8374   20.2516 C   0  0
   -2.1590   -8.6231    7.6387 C   0  0
    7.4887  -14.9849   13.8846 C   0  0
   -2.7107  -10.5324   17.9565 C   0  0
   -0.5210   -1.2905   20.6861 C   0  0
   -1.8766   -7.2619    7.5243 C   0  0
    9.3782   -9.5479   15.5037 C   0  0
   -0.4935  -11.9645   12.5904 C   0  0
    3.6382    1.2600   17.2280 C   0  0
   -3.9133   -4.5715   12.4615 C   0  0
    6.8528   -6.5356   15.2970 C   0  0
    1.5560   -8.6543   11.7955 C   0  0
    2.7618    1.9890   13.4604 C   0  0
   -2.9863   -1.0346   13.8664 C   0  0
    3.4631  -16.6325   12.3497 C   0  0  2  0  0  0
   -4.1910  -11.5561   22.0044 C   0  0  1  0  0  0
   -4.9415   -2.6843   20.2836 C   0  0  1  0  0  0
   -0.6816  -10.8378    5.1985 C   0  0  1  0  0  0
    1.9478  -16.4947   12.1901 C   0  0  2  0  0  0
   -5.1732  -12.4044   22.8108 C   0  0  1  0  0  0
   -5.7941   -3.4312   19.2589 C   0  0  1  0  0  0
    0.1953  -12.0888    5.1704 C   0  0  1  0  0  0
    1.2455  -16.7453   13.5277 C   0  0  2  0  0  0
   -4.5824  -13.7900   23.0855 C   0  0  1  0  0  0
   -4.9220   -4.3692   18.4200 C   0  0  1  0  0  0
   -0.5058  -13.2490    5.8822 C   0  0  1  0  0  0
    1.8552  -15.8520   14.6133 C   0  0  1  0  0  0
   -4.1192  -14.4276   21.7706 C   0  0  2  0  0  0
   -3.7448   -3.5895   17.8231 C   0  0  2  0  0  0
   -0.9454  -12.8098    7.2836 C   0  0  2  0  0  0
    3.9790  -15.7930   13.5223 C   0  0  1  0  0  0
   -3.7009  -12.3021   20.7614 C   0  0  2  0  0  0
   -3.7337   -2.0166   19.6223 C   0  0  2  0  0  0
   -1.1594  -10.5245    6.6181 C   0  0  2  0  0  0
    8.0313  -15.5866   11.6487 C   0  0
   -1.9100   -8.4712   18.8317 C   0  0
    0.8834   -2.7672   21.9119 C   0  0
   -1.2481   -5.3279    6.2913 C   0  0
    8.5288  -11.9217   15.8433 C   0  0
   -2.1090  -12.0663   14.5363 C   0  0
    1.8129    1.1696   18.9794 C   0  0
   -2.4106   -6.0793   11.0920 C   0  0
    8.5176  -10.6720   14.9549 C   0  0
   -0.6654  -11.8358   14.0934 C   0  0
    2.3622    0.5750   17.6841 C   0  0
   -3.8096   -5.4883   11.2557 C   0  0
    5.7403   -5.8841   14.4903 C   0  0
    2.6586   -7.7190   12.2671 C   0  0
    2.0708    1.4686   12.2096 C   0  0
   -1.6237   -0.8461   13.2179 C   0  0
    1.2472  -16.0925   15.9899 C   0  0
   -3.4550  -15.7846   21.9707 C   0  0
   -2.7904   -4.4725   17.0282 C   0  0
   -1.7137  -13.8929    8.0312 C   0  0
    2.3248   -3.7135   13.3260 C   0  0
    1.8524   -2.3822   13.9112 C   0  0
   10.0862   -7.2277   14.9791 C   0  0
    1.2476  -11.8171   10.8278 C   0  0
    5.3267    1.1816   15.4108 C   0  0
   -5.5472   -3.1406   13.6625 C   0  0
    9.2749   -6.2508   15.8134 C   0  0
    1.1520  -10.4685   10.1343 C   0  0
    5.0460    2.2914   14.4117 C   0  0
   -5.3206   -1.6868   13.2834 C   0  0
    4.3990   -6.5890   14.6152 C   0  0
    2.2364   -6.7949   13.3981 C   0  0
    0.6829    0.9035   12.4661 C   0  0
   -0.5364   -0.4166   14.1899 C   0  0
    2.8924   -4.6167   14.4109 C   0  0
    1.2520   -1.4932   12.8322 C   0  0
    9.3482   -8.4323   14.6796 N   0  0
    0.8243  -11.7525   12.2009 N   0  0
    4.1272    0.7095   16.0487 N   0  0
   -5.1910   -4.0407   12.5988 N   0  0
    8.0596   -5.8581   15.1528 N   0  0
    1.9910   -9.4748   10.7648 N   0  0
    4.1405    1.8650   13.3690 N   0  0
   -3.9414   -1.4256   12.9392 N   0  0
    4.1197  -16.1598   11.0956 N   0  3
   -4.8837  -10.3068   21.5714 N   0  3
   -5.7810   -1.6293   20.9241 N   0  3
    0.1195   -9.6827    4.6966 N   0  3
    3.3861   -5.8958   13.7809 N   0  3
    0.7681   -0.2362   13.4522 N   0  3
   10.0159   -9.6361   16.5495 O   0  0
   -1.4188  -12.2239   11.8257 O   0  0
    4.1620    2.1865   17.8408 O   0  0
   -2.9709   -4.3372   13.2133 O   0  0
    6.6833   -7.5327   15.9934 O   0  0
    0.4312   -8.6702   12.2880 O   0  0
    2.1543    2.4650   14.4156 O   0  0
   -3.1895   -0.8660   15.0657 O   0  0
    3.2616  -16.1053   14.7180 O   0  0
   -3.1642  -13.5764   21.1240 O   0  0
   -2.9843   -2.9742   18.8707 O   0  0
   -1.8031  -11.6651    7.1907 O   0  0
    1.4811  -17.4194   11.2127 O   0  0
   -5.4761  -11.7517   24.0400 O   0  0
   -6.8073   -4.1761   19.9276 O   0  0
    0.4807  -12.4461    3.8215 O   0  0
    1.4098  -18.1216   13.8760 O   0  0
   -3.4745  -13.6436   23.9762 O   0  0
   -4.4388   -5.4167   19.2635 O   0  0
   -1.6444  -13.6350    5.1098 O   0  0
    1.5154  -14.9662   16.8058 O   0  0
   -3.4942  -16.4926   20.7446 O   0  0
   -2.0419   -3.6523   16.1488 O   0  0
   -1.6625  -13.6085    9.4178 O   0  0
    5.3628  -16.0844   13.7069 O   0  0
   -2.6853  -11.5178   20.1390 O   0  0
   -2.9091   -1.4655   20.6471 O   0  0
   -2.0835   -9.4403    6.5512 O   0  0
    8.0583  -15.8910   13.0418 O   0  0
   -3.0082   -9.3105   18.4801 O   0  0
   -0.4268   -2.3683   21.5140 O   0  0
   -1.5201   -6.7276    6.3230 O   0  0
    5.8914  -12.3945   16.2856 H   0  0
   -1.8650  -13.9990   16.4419 H   0  0
   -0.7628    1.7791   18.3312 H   0  0
   -2.8884   -8.7586   10.9540 H   0  0
    4.5151  -14.2152   15.3499 H   0  0
   -2.1185  -13.7530   18.8833 H   0  0
   -2.8173    0.6263   19.0628 H   0  0
   -2.7430  -10.2181    8.9707 H   0  0
    9.3204  -13.8839   14.1510 H   0  0
   -2.6946   -9.8060   15.9291 H   0  0
    1.6108   -0.9939   20.6135 H   0  0
   -1.7375   -5.3753    8.5536 H   0  0
    3.7567  -17.6841   12.4503 H   0  0
   -3.3532  -11.2199   22.6267 H   0  0
   -4.6356   -3.3457   21.1027 H   0  0
   -1.5240  -10.9282    4.5026 H   0  0
    1.7003  -15.4852   11.8371 H   0  0
   -6.1129  -12.5177   22.2548 H   0  0
   -6.2934   -2.7139   18.5946 H   0  0
    1.1518  -11.8858    5.6694 H   0  0
    0.1698  -16.5644   13.4206 H   0  0
   -5.3254  -14.4164   23.5923 H   0  0
   -5.5283   -4.8377   17.6363 H   0  0
    0.1640  -14.1155    5.9277 H   0  0
    1.7080  -14.7959   14.3526 H   0  0
   -4.9778  -14.5615   21.1000 H   0  0
   -4.1204   -2.8028   17.1560 H   0  0
   -0.0653  -12.5389    7.8811 H   0  0
    3.8816  -14.7196   13.3152 H   0  0
   -4.5132  -12.4470   20.0376 H   0  0
   -4.0441   -1.2008   18.9570 H   0  0
   -0.3236  -10.2224    7.2623 H   0  0
    8.5178  -16.3899   11.0899 H   0  0
    8.5484  -14.6401   11.4715 H   0  0
    6.9918  -15.4978   11.3242 H   0  0
   -2.2860   -7.5285   19.2367 H   0  0
   -1.2974   -8.2814   17.9468 H   0  0
   -1.3056   -8.9754   19.5895 H   0  0
    0.8161   -3.6372   22.5698 H   0  0
    1.3747   -1.9410   22.4319 H   0  0
    1.4606   -3.0299   21.0223 H   0  0
   -0.9760   -5.0317    5.2753 H   0  0
   -0.4310   -5.0989    6.9801 H   0  0
   -2.1446   -4.7845    6.5991 H   0  0
    8.1777  -11.6583   16.8552 H   0  0
    9.5677  -12.2637   15.9861 H   0  0
   -2.4450  -13.0659   14.2314 H   0  0
   -2.7800  -11.3632   14.0260 H   0  0
    1.6065    2.2398   18.8487 H   0  0
    2.5679    1.1117   19.7743 H   0  0
   -2.1314   -6.6487   11.9880 H   0  0
   -1.6661   -5.2766   11.0111 H   0  0
    7.4920  -10.2966   14.8490 H   0  0
    8.8818  -10.9227   13.9508 H   0  0
    0.0007  -12.5613   14.5769 H   0  0
   -0.3323  -10.8336   14.3912 H   0  0
    1.6204    0.6645   16.8806 H   0  0
    2.5761   -0.4929   17.8173 H   0  0
   -4.5494   -6.2903   11.3716 H   0  0
   -4.0853   -4.9124   10.3634 H   0  0
    6.0489   -5.8290   13.4394 H   0  0
    5.6340   -4.8562   14.8580 H   0  0
    3.0215   -7.1374   11.4111 H   0  0
    3.4877   -8.3469   12.6156 H   0  0
    2.7115    0.7139   11.7376 H   0  0
    1.9850    2.3117   11.5133 H   0  0
   -1.7165   -0.1208   12.4005 H   0  0
   -1.3406   -1.8089   12.7751 H   0  0
    1.6906  -16.9791   16.4444 H   0  0
    0.1681  -16.2251   15.9040 H   0  0
   -3.9902  -16.3539   22.7315 H   0  0
   -2.4165  -15.6511   22.2756 H   0  0
   -3.3540   -5.2025   16.4462 H   0  0
   -2.1089   -4.9899   17.7044 H   0  0
   -1.2599  -14.8674    7.8473 H   0  0
   -2.7543  -13.9057    7.7052 H   0  0
    3.0880   -3.5276   12.5600 H   0  0
    1.4853   -4.2137   12.8273 H   0  0
    2.6979   -1.8698   14.3872 H   0  0
    1.1083   -2.5695   14.6954 H   0  0
   11.0045   -7.5265   15.4945 H   0  0
   10.3566   -6.7706   14.0222 H   0  0
    2.2736  -12.1986   10.8195 H   0  0
    0.6014  -12.5443   10.3265 H   0  0
    6.0064    1.5175   16.2003 H   0  0
    5.7791    0.3242   14.9030 H   0  0
   -6.5959   -3.3292   13.9132 H   0  0
   -4.9295   -3.4044   14.5267 H   0  0
    8.9893   -6.7109   16.7644 H   0  0
    9.8434   -5.3396   16.0255 H   0  0
    1.4808  -10.5534    9.0940 H   0  0
    0.1259  -10.0870   10.1440 H   0  0
    4.5788    3.1441   14.9140 H   0  0
    5.9662    2.6349   13.9282 H   0  0
   -5.9250   -1.4245   12.4096 H   0  0
   -5.5878   -1.0141   14.1048 H   0  0
    4.4346   -7.6284   14.2759 H   0  0
    4.0294   -6.5526   15.6440 H   0  0
    1.4007   -6.1447   13.1231 H   0  0
    1.9772   -7.3640   14.2955 H   0  0
   -0.0025    1.6426   12.8914 H   0  0
    0.2513    0.4885   11.5508 H   0  0
   -0.7598    0.5354   14.6803 H   0  0
   -0.3593   -1.1855   14.9473 H   0  0
    3.7484   -4.1613   14.9174 H   0  0
    2.1347   -4.8980   15.1481 H   0  0
    0.3894   -1.9610   12.3485 H   0  0
    1.9903   -1.2104   12.0761 H   0  0
    8.8195   -8.4650   13.8128 H   0  0
    1.5148  -11.5062   12.9081 H   0  0
    3.6400   -0.0835   15.6346 H   0  0
   -5.8974   -4.2670   11.9007 H   0  0
    8.0908   -5.0410   14.5442 H   0  0
    2.9432   -9.3802   10.4238 H   0  0
    4.5471    1.4519   12.5347 H   0  0
   -3.6724   -1.5337   11.9656 H   0  0
    4.9103  -16.7623   10.8563 H   0  0
    4.4649  -15.2041   11.2112 H   0  0
    3.4564  -16.1722   10.3176 H   0  0
   -5.4400  -10.4790   20.7312 H   0  0
   -4.2017   -9.5739   21.3633 H   0  0
   -5.5067   -9.9693   22.3085 H   0  0
   -6.7168   -1.6178   20.5127 H   0  0
   -5.3584   -0.7076   20.7925 H   0  0
   -5.8708   -1.8038   21.9276 H   0  0
    1.1062   -9.9386    4.6181 H   0  0
    0.0410   -8.8888    5.3362 H   0  0
   -0.2132   -9.3900    3.7751 H   0  0
    3.8419   -5.6207   12.8941 H   0  0
    1.4608    0.0537   14.1641 H   0  0
    0.5213  -17.2939   11.1483 H   0  0
   -6.0989  -12.3259   24.5125 H   0  0
   -7.3182   -4.6294   19.2388 H   0  0
    1.0362  -13.2405    3.8568 H   0  0
    0.9556  -18.2442   14.7228 H   0  0
   -3.1270  -14.5351   24.1273 H   0  0
   -3.8937   -5.9883   18.7029 H   0  0
   -2.0618  -14.3674    5.5871 H   0  0
    1.1187  -15.1434   17.6756 H   0  0
   -3.0659  -17.3519   20.8979 H   0  0
   -1.4424   -4.2369   15.6547 H   0  0
   -2.1580  -14.3114    9.8714 H   0  0
  1  5  2  0
  1 13  1  0
  2  6  2  0
  2 14  1  0
  3  7  2  0
  3 15  1  0
  4  8  2  0
  4 16  1  0
  5 17  1  0
  6 18  1  0
  7 19  1  0
  8 20  1  0
  9 13  2  0
  9 21  1  0
 10 14  2  0
 10 22  1  0
 11 15  2  0
 11 23  1  0
 12 16  2  0
 12 24  1  0
 13 57  1  0
 14 58  1  0
 15 59  1  0
 16 60  1  0
 17 21  2  0
 17127  1  0
 18 22  2  0
 18128  1  0
 19 23  2  0
 19129  1  0
 20 24  2  0
 20130  1  0
 21131  1  0
 22132  1  0
 23133  1  0
 24134  1  0
 25 61  1  0
 25 89  1  0
 25103  2  0
 26 62  1  0
 26 90  1  0
 26104  2  0
 27 63  1  0
 27 91  1  0
 27105  2  0
 28 64  1  0
 28 92  1  0
 28106  2  0
 29 65  1  0
 29 93  1  0
 29107  2  0
 30 66  1  0
 30 94  1  0
 30108  2  0
 31 67  1  0
 31 95  1  0
 31109  2  0
 32 68  1  0
 32 96  1  0
 32110  2  0
 33 37  1  0
 33 49  1  0
 33 97  1  0
 34 38  1  0
 34 50  1  0
 34 98  1  0
 35 39  1  0
 35 51  1  0
 35 99  1  0
 36 40  1  0
 36 52  1  0
 36100  1  0
 37 41  1  0
 37115  1  0
 38 42  1  0
 38116  1  0
 39 43  1  0
 39117  1  0
 40 44  1  0
 40118  1  0
 41 45  1  0
 41119  1  0
 42 46  1  0
 42120  1  0
 43 47  1  0
 43121  1  0
 44 48  1  0
 44122  1  0
 45 69  1  0
 45111  1  0
 46 70  1  0
 46112  1  0
 47 71  1  0
 47113  1  0
 48 72  1  0
 48114  1  0
 49111  1  0
 49127  1  0
 50112  1  0
 50128  1  0
 51113  1  0
 51129  1  0
 52114  1  0
 52130  1  0
 53131  1  0
 54132  1  0
 55133  1  0
 56134  1  0
 57 61  1  0
 58 62  1  0
 59 63  1  0
 60 64  1  0
 65 83  1  0
 66 84  1  0
 67 85  1  0
 68 86  1  0
 69123  1  0
 70124  1  0
 71125  1  0
 72126  1  0
 73 74  1  0
 73 87  1  0
 74 88  1  0
 75 79  1  0
 75 89  1  0
 76 80  1  0
 76 90  1  0
 77 81  1  0
 77 91  1  0
 78 82  1  0
 78 92  1  0
 79 93  1  0
 80 94  1  0
 81 95  1  0
 82 96  1  0
 83101  1  0
 84101  1  0
 85102  1  0
 86102  1  0
 87101  1  0
 88102  1  0
  1135  1  0
  2136  1  0
  3137  1  0
  4138  1  0
  5139  1  0
  6140  1  0
  7141  1  0
  8142  1  0
  9143  1  0
 10144  1  0
 11145  1  0
 12146  1  0
 33147  1  0
 34148  1  0
 35149  1  0
 36150  1  0
 37151  1  0
 38152  1  0
 39153  1  0
 40154  1  0
 41155  1  0
 42156  1  0
 43157  1  0
 44158  1  0
 45159  1  0
 46160  1  0
 47161  1  0
 48162  1  0
 49163  1  0
 50164  1  0
 51165  1  0
 52166  1  0
 53167  1  0
 53168  1  0
 53169  1  0
 54170  1  0
 54171  1  0
 54172  1  0
 55173  1  0
 55174  1  0
 55175  1  0
 56176  1  0
 56177  1  0
 56178  1  0
 57179  1  0
 57180  1  0
 58181  1  0
 58182  1  0
 59183  1  0
 59184  1  0
 60185  1  0
 60186  1  0
 61187  1  0
 61188  1  0
 62189  1  0
 62190  1  0
 63191  1  0
 63192  1  0
 64193  1  0
 64194  1  0
 65195  1  0
 65196  1  0
 66197  1  0
 66198  1  0
 67199  1  0
 67200  1  0
 68201  1  0
 68202  1  0
 69203  1  0
 69204  1  0
 70205  1  0
 70206  1  0
 71207  1  0
 71208  1  0
 72209  1  0
 72210  1  0
 73211  1  0
 73212  1  0
 74213  1  0
 74214  1  0
 75215  1  0
 75216  1  0
 76217  1  0
 76218  1  0
 77219  1  0
 77220  1  0
 78221  1  0
 78222  1  0
 79223  1  0
 79224  1  0
 80225  1  0
 80226  1  0
 81227  1  0
 81228  1  0
 82229  1  0
 82230  1  0
 83231  1  0
 83232  1  0
 84233  1  0
 84234  1  0
 85235  1  0
 85236  1  0
 86237  1  0
 86238  1  0
 87239  1  0
 87240  1  0
 88241  1  0
 88242  1  0
 89243  1  0
 90244  1  0
 91245  1  0
 92246  1  0
 93247  1  0
 94248  1  0
 95249  1  0
 96250  1  0
 97251  1  0
 97252  1  0
 97253  1  0
 98254  1  0
 98255  1  0
 98256  1  0
 99257  1  0
 99258  1  0
 99259  1  0
100260  1  0
100261  1  0
100262  1  0
101263  1  0
102264  1  0
115265  1  0
116266  1  0
117267  1  0
118268  1  0
119269  1  0
120270  1  0
121271  1  0
122272  1  0
123273  1  0
124274  1  0
125275  1  0
126276  1  0
M  CHG  6  97   1  98   1  99   1 100   1 101   1 102   1
M  END
> <Name>
BR010388

$$$$
BR010389
  SciTegic05062102053D

300307  0  0  1  0            999 V2000
   -0.9541   -0.1683    7.6414 C   0  0
   -1.6429    5.5084   -0.5778 C   0  0
   -9.6586   -0.3660   -7.0148 C   0  0
    0.7166   -1.6447    3.3559 C   0  0
   -1.1142   -1.4842    7.2075 C   0  0
   -1.6953    4.5416   -1.5819 C   0  0
   -9.5299    0.9755   -6.6551 C   0  0
    1.7916   -1.0526    4.0186 C   0  0
   -2.7156    0.5390    6.1468 C   0  0
   -1.5282    7.2438   -2.2547 C   0  0
  -11.8525   -0.4264   -6.0046 C   0  0
    2.2479   -2.6967    1.8114 C   0  0
   -1.7548    0.8433    7.1111 C   0  0
   -1.5594    6.8595   -0.9142 C   0  0
  -10.8200   -1.0670   -6.6896 C   0  0
    0.9447   -2.4668    2.2523 C   0  0
   -2.0750   -1.7886    6.2432 C   0  0
   -1.6641    4.9259   -2.9224 C   0  0
  -10.5625    1.6160   -5.9702 C   0  0
    3.0949   -1.2825    3.5777 C   0  0
   -2.8757   -0.7770    5.7128 C   0  0
   -1.5805    6.2770   -3.2589 C   0  0
  -11.7238    0.9151   -5.6449 C   0  0
    3.3230   -2.1046    2.4741 C   0  0
   -0.3642    4.4506    7.2058 C   0  0
    0.0039    9.2513    1.6916 C   0  0
  -10.5515   -4.9120   -6.3757 C   0  0
   -1.7164   -5.1435    1.4103 C   0  0
    4.2349    6.6218    6.3222 C   0  0
    3.6787    8.6152    3.0629 C   0  0
   -6.8948   -6.1995   -5.5033 C   0  0
   -2.7741   -7.0409   -1.8491 C   0  0
   -2.7826   -5.3238    6.4538 C   0  0  2  0  0  0
   -2.7291    2.1556   -5.0863 C   0  0  1  0  0  0
  -10.8172    5.2074   -6.2528 C   0  0  2  0  0  0
    4.9468    0.1746    6.3144 C   0  0  1  0  0  0
   -2.3992   -6.5211    7.3257 C   0  0  2  0  0  0
   -3.9973    1.3232   -5.2698 C   0  0  1  0  0  0
  -10.5081    6.3031   -7.2749 C   0  0  2  0  0  0
    5.2895   -0.1520    7.7672 C   0  0  1  0  0  0
   -0.8881   -6.7621    7.2663 C   0  0  2  0  0  0
   -5.2280    2.2316   -5.3357 C   0  0  1  0  0  0
   -9.0126    6.3193   -7.6038 C   0  0  2  0  0  0
    6.0869   -1.4566    7.8480 C   0  0  1  0  0  0
   -0.1391   -5.4671    7.5982 C   0  0  1  0  0  0
   -5.2493    3.1671   -4.1214 C   0  0  2  0  0  0
   -8.5530    4.9166   -8.0155 C   0  0  1  0  0  0
    5.3402   -2.5692    7.1033 C   0  0  2  0  0  0
   -1.9162   -4.1017    6.7725 C   0  0  1  0  0  0
   -2.8685    3.1324   -3.9166 C   0  0  2  0  0  0
  -10.2319    3.8598   -6.6856 C   0  0  1  0  0  0
    4.2950   -1.0198    5.6140 C   0  0  2  0  0  0
   -3.4070   -0.9989    3.4054 C   0  0
   -1.4626    8.0644   -4.8232 C   0  0
  -12.7020    1.4749   -3.5507 C   0  0
    5.1118   -1.4375    1.0560 C   0  0
   -1.5836    2.2645    7.5816 C   0  0
   -1.5054    7.9041    0.1703 C   0  0
  -10.9602   -2.5155   -7.0803 C   0  0
   -0.2165   -3.1085    1.5379 C   0  0
   -0.5626    3.0211    6.7340 C   0  0
   -0.0684    8.2130    0.5862 C   0  0
  -10.4343   -3.4480   -5.9907 C   0  0
   -0.5593   -4.4742    2.1303 C   0  0
    5.3779    5.6958    5.9362 C   0  0
    5.1182    8.2962    2.6897 C   0  0
   -5.7366   -6.1134   -4.5215 C   0  0
   -1.9169   -6.3058   -2.8678 C   0  0
    1.3744   -5.6146    7.4968 C   0  0
   -6.4120    4.1519   -4.1514 C   0  0
   -7.0572    4.8416   -8.2977 C   0  0
    6.1068   -3.8862    7.0809 C   0  0
   -0.2553    1.5515    0.2838 C   0  0
   -0.6399    0.1365   -0.1542 C   0  0
    1.1178    1.6277    0.9577 C   0  0
   -2.0049    0.1224   -0.8481 C   0  0
    1.5135    3.0464    1.3736 C   0  0
   -2.3714   -1.2865   -1.3190 C   0  0
    2.9055    3.0692    2.0118 C   0  0
   -3.7333   -1.3607   -2.0157 C   0  0
    3.2837    4.4825    2.4645 C   0  0
   -4.1896   -2.7618   -2.4392 C   0  0
    0.9336    6.4969    6.6694 C   0  0
    1.4785   11.0514    2.5546 C   0  0
  -10.0679   -7.1825   -5.4979 C   0  0
   -3.0741   -7.2206    1.4543 C   0  0
    2.1094    6.6147    7.6246 C   0  0
    2.2523   10.5380    3.7572 C   0  0
   -8.7842   -7.7031   -6.1223 C   0  0
   -2.5882   -8.1653    0.3680 C   0  0
    6.0128    6.0315    4.5962 C   0  0
    5.3502    6.8362    2.3347 C   0  0
   -4.9032   -4.8500   -4.6659 C   0  0
   -2.6882   -5.8302   -4.0886 C   0  0
    4.6667    4.5667    3.0982 C   0  0
   -3.2478   -3.5116   -3.3736 C   0  0
    0.5670    5.1275    6.4263 N   0  0
    1.1712   10.0030    1.6191 N   0  0
  -10.0696   -5.7494   -5.3758 N   0  0
   -2.0179   -6.3848    1.9590 N   0  0
    3.2945    5.9698    7.1066 N   0  0
    3.5200    9.9570    3.3776 N   0  0
   -7.6224   -7.3681   -5.3307 N   0  0
   -2.0250   -7.4532   -0.7566 N   0  0
   -4.2112   -4.9807    6.7161 N   0  3
   -1.5895    1.2330   -4.8070 N   0  3
  -12.2986    5.0710   -6.1331 N   0  3
    3.9909    1.3208    6.2961 N   0  3
    4.9730    5.9585    3.5039 N   0  3
   -3.7711   -4.8660   -3.6669 N   0  3
   -0.9620    4.9334    8.1638 O   0  0
   -0.8723    9.3946    2.5403 O   0  0
  -11.0171   -5.2924   -7.4466 O   0  0
   -2.3027   -4.6352    0.4583 O   0  0
    4.1782    7.7995    5.9790 O   0  0
    2.7833    7.7749    3.0679 O   0  0
   -7.1419   -5.3259   -6.3302 O   0  0
   -3.9796   -7.2254   -1.9926 O   0  0
   -0.5288   -4.4328    6.6863 O   0  0
   -4.0403    3.9357   -4.0749 O   0  0
   -8.8360    3.9845   -6.9647 O   0  0
    5.1175   -2.1820    5.7413 O   0  0
   -3.0966   -7.6812    6.8831 O   0  0
   -3.8975    0.5509   -6.4623 O   0  0
  -10.9085    7.5687   -6.7592 O   0  0
    6.0425    0.9151    8.3354 O   0  0
   -0.5496   -7.2004    5.9489 O   0  0
   -5.1654    2.9954   -6.5419 O   0  0
   -8.2971    6.7488   -6.4436 O   0  0
    7.3688   -1.2436    7.2535 O   0  0
    1.9811   -4.5667    8.2316 O   0  0
   -7.6242    3.4198   -4.1779 O   0  0
   -6.7525    5.7268   -9.3606 O   0  0
    5.1935   -4.9367    6.8194 O   0  0
   -2.2214   -3.0778    5.8278 O   0  0
   -1.7158    3.9718   -3.8936 O   0  0
  -10.4243    2.9266   -5.6245 O   0  0
    4.1363   -0.6982    4.2336 O   0  0
   -3.8168   -1.0619    4.7700 O   0  0
   -1.5485    6.6645   -4.5645 O   0  0
  -12.7386    1.5297   -4.9755 O   0  0
    4.5912   -2.3359    2.0338 O   0  0
   -0.2041    0.0593    8.3942 H   0  0
   -1.6694    5.1999    0.4638 H   0  0
   -8.8498   -0.8565   -7.5497 H   0  0
   -0.2952   -1.4613    3.7074 H   0  0
   -0.4869   -2.2672    7.6245 H   0  0
   -1.7598    3.4909   -1.3128 H   0  0
   -8.6225    1.5154   -6.9112 H   0  0
    1.6068   -0.4130    4.8772 H   0  0
   -3.3414    1.3256    5.7321 H   0  0
   -1.4637    8.2965   -2.5197 H   0  0
  -12.7591   -0.9704   -5.7504 H   0  0
    2.4285   -3.3376    0.9518 H   0  0
   -2.7382   -5.5793    5.3886 H   0  0
   -2.4583    2.6754   -6.0129 H   0  0
  -10.4718    5.4911   -5.2517 H   0  0
    5.8296    0.5270    5.7682 H   0  0
   -2.6933   -6.3337    8.3666 H   0  0
   -4.1102    0.6247   -4.4305 H   0  0
  -11.0775    6.1247   -8.1963 H   0  0
    4.3676   -0.2569    8.3539 H   0  0
   -0.6145   -7.5686    7.9564 H   0  0
   -6.1373    1.6216   -5.3851 H   0  0
   -8.8155    7.0514   -8.3954 H   0  0
    6.2565   -1.7235    8.8974 H   0  0
   -0.3852   -5.1456    8.6185 H   0  0
   -5.3234    2.5768   -3.1990 H   0  0
   -9.0893    4.5993   -8.9191 H   0  0
    4.3672   -2.7467    7.5793 H   0  0
   -2.1310   -3.7138    7.7766 H   0  0
   -2.9240    2.6008   -2.9580 H   0  0
  -10.7430    3.4729   -7.5765 H   0  0
    3.3030   -1.2340    6.0318 H   0  0
   -4.2518   -1.2478    2.7586 H   0  0
   -2.5866   -1.7012    3.2376 H   0  0
   -3.0670    0.0153    3.1828 H   0  0
   -1.4451    8.2359   -5.9023 H   0  0
   -0.5550    8.4655   -4.3650 H   0  0
   -2.3356    8.5599   -4.3920 H   0  0
  -13.5674    2.0027   -3.1427 H   0  0
  -11.7783    1.9351   -3.1911 H   0  0
  -12.7332    0.4296   -3.2343 H   0  0
    6.1297   -1.7348    0.7922 H   0  0
    5.1101   -0.4207    1.4566 H   0  0
    4.4806   -1.4771    0.1651 H   0  0
   -2.5536    2.7778    7.5561 H   0  0
   -1.2784    2.2667    8.6361 H   0  0
   -2.0054    8.8178   -0.1764 H   0  0
   -2.0867    7.5626    1.0367 H   0  0
  -12.0140   -2.7366   -7.2937 H   0  0
  -10.4265   -2.6936   -8.0230 H   0  0
   -1.0886   -2.4436    1.5862 H   0  0
    0.0193   -3.2058    0.4702 H   0  0
   -0.8853    3.0490    5.6857 H   0  0
    0.4091    2.5124    6.7661 H   0  0
    0.5032    8.5875   -0.2722 H   0  0
    0.4287    7.3012    0.9403 H   0  0
  -10.9914   -3.2943   -5.0580 H   0  0
   -9.3787   -3.2323   -5.7832 H   0  0
   -0.8288   -4.3721    3.1890 H   0  0
    0.3101   -5.1412    2.0746 H   0  0
    5.0139    4.6613    5.9404 H   0  0
    6.1412    5.7810    6.7193 H   0  0
    5.7746    8.6001    3.5140 H   0  0
    5.3712    8.9150    1.8202 H   0  0
   -5.1069   -7.0040   -4.6358 H   0  0
   -6.1659   -6.1392   -3.5124 H   0  0
   -1.0858   -6.9555   -3.1676 H   0  0
   -1.4880   -5.4334   -2.3597 H   0  0
    1.6870   -5.5501    6.4540 H   0  0
    1.6853   -6.5730    7.9142 H   0  0
   -6.3498    4.7763   -5.0434 H   0  0
   -6.3917    4.7814   -3.2612 H   0  0
   -6.7818    3.8264   -8.5855 H   0  0
   -6.4943    5.1369   -7.4115 H   0  0
    6.5841   -4.0571    8.0464 H   0  0
    6.8640   -3.8647    6.2963 H   0  0
   -1.0047    1.9225    0.9940 H   0  0
   -0.2787    2.2260   -0.5808 H   0  0
   -0.6667   -0.5250    0.7201 H   0  0
    0.1148   -0.2618   -0.8413 H   0  0
    1.0968    0.9869    1.8481 H   0  0
    1.8798    1.2115    0.2875 H   0  0
   -2.7643    0.4951   -0.1517 H   0  0
   -1.9871    0.8043   -1.7068 H   0  0
    0.7769    3.4397    2.0845 H   0  0
    1.5105    3.7090    0.5010 H   0  0
   -1.6099   -1.6360   -2.0276 H   0  0
   -2.3431   -1.9815   -0.4720 H   0  0
    3.6375    2.6964    1.2865 H   0  0
    2.9258    2.3907    2.8731 H   0  0
   -3.7108   -0.7049   -2.8945 H   0  0
   -4.4954   -0.9393   -1.3477 H   0  0
    2.5494    4.8290    3.2021 H   0  0
    3.2230    5.1708    1.6123 H   0  0
   -5.1714   -2.6688   -2.9213 H   0  0
   -4.3538   -3.3748   -1.5452 H   0  0
    1.1595    6.9521    5.6998 H   0  0
    0.0549    6.9944    7.0916 H   0  0
    2.0432   11.8173    2.0136 H   0  0
    0.5260   11.4834    2.8769 H   0  0
  -10.2211   -7.5962   -4.4961 H   0  0
  -10.9258   -7.4527   -6.1214 H   0  0
   -3.4909   -7.7700    2.3044 H   0  0
   -3.8471   -6.5558    1.0563 H   0  0
    2.3614    7.6672    7.7871 H   0  0
    1.8832    6.1583    8.5936 H   0  0
    2.4690   11.3594    4.4471 H   0  0
    1.6875    9.7712    4.2971 H   0  0
   -8.8162   -8.7943   -6.2002 H   0  0
   -8.6310   -7.2881   -7.1237 H   0  0
   -1.8037   -8.8206    0.7588 H   0  0
   -3.4037   -8.7888   -0.0124 H   0  0
    6.4338    7.0409    4.5689 H   0  0
    6.7874    5.3050    4.3345 H   0  0
    4.7486    6.5077    1.4821 H   0  0
    6.4076    6.6435    2.1322 H   0  0
   -4.4521   -4.7523   -5.6578 H   0  0
   -5.4977   -3.9588   -4.4451 H   0  0
   -2.0556   -5.3041   -4.8097 H   0  0
   -3.1930   -6.6640   -4.5849 H   0  0
    5.4564    4.2506    2.4104 H   0  0
    4.7148    3.9602    4.0073 H   0  0
   -2.2694   -3.6511   -2.9039 H   0  0
   -3.1099   -3.0036   -4.3317 H   0  0
    1.0376    4.6279    5.6737 H   0  0
    1.8562    9.7831    0.8980 H   0  0
   -9.6681   -5.3357   -4.5361 H   0  0
   -1.4483   -6.7371    2.7266 H   0  0
    3.4313    4.9888    7.3323 H   0  0
    4.3277   10.5723    3.3476 H   0  0
   -7.3326   -8.0321   -4.6186 H   0  0
   -1.0289   -7.2548   -0.7349 H   0  0
   -4.8162   -5.7755    6.4978 H   0  0
   -4.4998   -4.1868    6.1399 H   0  0
   -4.3452   -4.7327    7.6990 H   0  0
   -1.6588    0.3932   -5.3858 H   0  0
   -1.5918    0.9497   -3.8244 H   0  0
   -0.6990    1.6929   -5.0091 H   0  0
  -12.7703    5.7812   -6.6973 H   0  0
  -12.5905    5.1849   -5.1597 H   0  0
  -12.6003    4.1487   -6.4555 H   0  0
    3.5445    1.4292    7.2095 H   0  0
    3.2618    1.1668    5.5960 H   0  0
    4.4790    2.1901    6.0692 H   0  0
    4.1115    6.3707    3.9030 H   0  0
   -4.1692   -5.2504   -2.7921 H   0  0
   -2.8215   -8.4083    7.4634 H   0  0
   -4.7211    0.0435   -6.5336 H   0  0
  -10.6932    8.2260   -7.4394 H   0  0
    6.2341    0.6617    9.2520 H   0  0
    0.4086   -7.3427    5.9471 H   0  0
   -4.3467    3.5112   -6.4955 H   0  0
   -7.3593    6.7474   -6.6861 H   0  0
    7.8439   -2.0850    7.3217 H   0  0
    2.9432   -4.6825    8.1517 H   0  0
   -8.3484    4.0682   -4.1966 H   0  0
   -5.7958    5.6609   -9.5210 H   0  0
    5.7051   -5.7635    6.8102 H   0  0
  1  5  2  0
  1 13  1  0
  2  6  2  0
  2 14  1  0
  3  7  2  0
  3 15  1  0
  4  8  2  0
  4 16  1  0
  5 17  1  0
  6 18  1  0
  7 19  1  0
  8 20  1  0
  9 13  2  0
  9 21  1  0
 10 14  2  0
 10 22  1  0
 11 15  2  0
 11 23  1  0
 12 16  2  0
 12 24  1  0
 13 57  1  0
 14 58  1  0
 15 59  1  0
 16 60  1  0
 17 21  2  0
 17135  1  0
 18 22  2  0
 18136  1  0
 19 23  2  0
 19137  1  0
 20 24  2  0
 20138  1  0
 21139  1  0
 22140  1  0
 23141  1  0
 24142  1  0
 25 61  1  0
 25 97  1  0
 25111  2  0
 26 62  1  0
 26 98  1  0
 26112  2  0
 27 63  1  0
 27 99  1  0
 27113  2  0
 28 64  1  0
 28100  1  0
 28114  2  0
 29 65  1  0
 29101  1  0
 29115  2  0
 30 66  1  0
 30102  1  0
 30116  2  0
 31 67  1  0
 31103  1  0
 31117  2  0
 32 68  1  0
 32104  1  0
 32118  2  0
 33 37  1  0
 33 49  1  0
 33105  1  0
 34 38  1  0
 34 50  1  0
 34106  1  0
 35 39  1  0
 35 51  1  0
 35107  1  0
 36 40  1  0
 36 52  1  0
 36108  1  0
 37 41  1  0
 37123  1  0
 38 42  1  0
 38124  1  0
 39 43  1  0
 39125  1  0
 40 44  1  0
 40126  1  0
 41 45  1  0
 41127  1  0
 42 46  1  0
 42128  1  0
 43 47  1  0
 43129  1  0
 44 48  1  0
 44130  1  0
 45 69  1  0
 45119  1  0
 46 70  1  0
 46120  1  0
 47 71  1  0
 47121  1  0
 48 72  1  0
 48122  1  0
 49119  1  0
 49135  1  0
 50120  1  0
 50136  1  0
 51121  1  0
 51137  1  0
 52122  1  0
 52138  1  0
 53139  1  0
 54140  1  0
 55141  1  0
 56142  1  0
 57 61  1  0
 58 62  1  0
 59 63  1  0
 60 64  1  0
 65 91  1  0
 66 92  1  0
 67 93  1  0
 68 94  1  0
 69131  1  0
 70132  1  0
 71133  1  0
 72134  1  0
 73 74  1  0
 73 75  1  0
 74 76  1  0
 75 77  1  0
 76 78  1  0
 77 79  1  0
 78 80  1  0
 79 81  1  0
 80 82  1  0
 81 95  1  0
 82 96  1  0
 83 87  1  0
 83 97  1  0
 84 88  1  0
 84 98  1  0
 85 89  1  0
 85 99  1  0
 86 90  1  0
 86100  1  0
 87101  1  0
 88102  1  0
 89103  1  0
 90104  1  0
 91109  1  0
 92109  1  0
 93110  1  0
 94110  1  0
 95109  1  0
 96110  1  0
  1143  1  0
  2144  1  0
  3145  1  0
  4146  1  0
  5147  1  0
  6148  1  0
  7149  1  0
  8150  1  0
  9151  1  0
 10152  1  0
 11153  1  0
 12154  1  0
 33155  1  0
 34156  1  0
 35157  1  0
 36158  1  0
 37159  1  0
 38160  1  0
 39161  1  0
 40162  1  0
 41163  1  0
 42164  1  0
 43165  1  0
 44166  1  0
 45167  1  0
 46168  1  0
 47169  1  0
 48170  1  0
 49171  1  0
 50172  1  0
 51173  1  0
 52174  1  0
 53175  1  0
 53176  1  0
 53177  1  0
 54178  1  0
 54179  1  0
 54180  1  0
 55181  1  0
 55182  1  0
 55183  1  0
 56184  1  0
 56185  1  0
 56186  1  0
 57187  1  0
 57188  1  0
 58189  1  0
 58190  1  0
 59191  1  0
 59192  1  0
 60193  1  0
 60194  1  0
 61195  1  0
 61196  1  0
 62197  1  0
 62198  1  0
 63199  1  0
 63200  1  0
 64201  1  0
 64202  1  0
 65203  1  0
 65204  1  0
 66205  1  0
 66206  1  0
 67207  1  0
 67208  1  0
 68209  1  0
 68210  1  0
 69211  1  0
 69212  1  0
 70213  1  0
 70214  1  0
 71215  1  0
 71216  1  0
 72217  1  0
 72218  1  0
 73219  1  0
 73220  1  0
 74221  1  0
 74222  1  0
 75223  1  0
 75224  1  0
 76225  1  0
 76226  1  0
 77227  1  0
 77228  1  0
 78229  1  0
 78230  1  0
 79231  1  0
 79232  1  0
 80233  1  0
 80234  1  0
 81235  1  0
 81236  1  0
 82237  1  0
 82238  1  0
 83239  1  0
 83240  1  0
 84241  1  0
 84242  1  0
 85243  1  0
 85244  1  0
 86245  1  0
 86246  1  0
 87247  1  0
 87248  1  0
 88249  1  0
 88250  1  0
 89251  1  0
 89252  1  0
 90253  1  0
 90254  1  0
 91255  1  0
 91256  1  0
 92257  1  0
 92258  1  0
 93259  1  0
 93260  1  0
 94261  1  0
 94262  1  0
 95263  1  0
 95264  1  0
 96265  1  0
 96266  1  0
 97267  1  0
 98268  1  0
 99269  1  0
100270  1  0
101271  1  0
102272  1  0
103273  1  0
104274  1  0
105275  1  0
105276  1  0
105277  1  0
106278  1  0
106279  1  0
106280  1  0
107281  1  0
107282  1  0
107283  1  0
108284  1  0
108285  1  0
108286  1  0
109287  1  0
110288  1  0
123289  1  0
124290  1  0
125291  1  0
126292  1  0
127293  1  0
128294  1  0
129295  1  0
130296  1  0
131297  1  0
132298  1  0
133299  1  0
134300  1  0
M  CHG  6 105   1 106   1 107   1 108   1 109   1 110   1
M  END
> <Name>
BR010389

$$$$
BR010390
  SciTegic05062102053D

 64 65  0  0  1  0            999 V2000
    4.7828   -4.1609   -4.1693 C   0  0
    3.5934   -3.4708   -3.9354 C   0  0
    5.3214   -2.6270   -5.9564 C   0  0
    5.6469   -3.7390   -5.1798 C   0  0
    3.2680   -2.3589   -4.7121 C   0  0
    4.1320   -1.9369   -5.7226 C   0  0
    6.8883   -4.4571   -5.4216 C   0  0
    7.6078   -4.4094   -6.5653 C   0  0
    8.9068   -5.2086   -6.7488 C   0  0
   -0.1514    2.7277   -1.1123 C   0  0
   -2.1676   -0.5982   -0.6712 C   0  0
    1.0128    1.9772   -4.7638 C   0  0
   -0.0513   -3.2307    2.0855 C   0  0
    0.7233    0.6893   -1.9268 C   0  0  1  0  0  0
    0.1626   -0.3970   -1.0083 C   0  0  2  0  0  0
    1.0679    0.1207   -3.3030 C   0  0  2  0  0  0
    1.1199   -1.5934   -0.9760 C   0  0  1  0  0  0
    1.9375   -1.1315   -3.1696 C   0  0  1  0  0  0
   -1.2083    3.7587   -1.3695 C   0  0
   -3.4304   -1.0693   -1.3265 C   0  0
    1.8918    2.9615   -5.4741 C   0  0
   -0.1861   -2.6172    3.4462 C   0  0
    3.0776   -1.0918   -7.6796 C   0  0
    0.5950   -2.7518   -0.1363 C   0  0
    9.2298   -5.9034   -5.7402 O   0  5
    9.5001   -5.0946   -7.8575 O   0  0
    0.6512    2.7844   -0.1904 O   0  0
   -2.1187   -0.1064    0.4481 O   0  0
   -0.2082    1.9681   -4.8419 O   0  0
   -0.3267   -4.3949    1.8285 O   0  0
    1.3267   -2.0883   -2.3049 O   0  0
    2.0984   -1.6910   -4.4725 O   0  0
    3.8237   -0.8528   -6.4879 O   0  0
   -0.2303    1.7405   -2.0532 O   0  0
   -1.1121   -0.8043   -1.5106 O   0  0
    1.7818    1.1166   -4.0347 O   0  0
    0.4192   -2.3021    1.1952 O   0  0
    5.0236   -5.0252   -3.5550 H   0  0
    2.9246   -3.8049   -3.1467 H   0  0
    5.9897   -2.2908   -6.7463 H   0  0
    7.2377   -5.0974   -4.6045 H   0  0
    7.2558   -3.7989   -7.3959 H   0  0
    1.6205    1.1273   -1.4713 H   0  0
   -0.0004    0.0130   -0.0050 H   0  0
    0.1516   -0.0940   -3.8664 H   0  0
    2.0891   -1.2829   -0.5645 H   0  0
    2.9371   -0.8744   -2.7968 H   0  0
   -0.8169    4.5334   -2.0335 H   0  0
   -1.5403    4.1936   -0.4233 H   0  0
   -2.0667    3.2849   -1.8544 H   0  0
   -3.8817   -0.2512   -1.8932 H   0  0
   -4.1244   -1.4424   -0.5691 H   0  0
   -3.1981   -1.8852   -2.0171 H   0  0
    2.0530    3.8384   -4.8422 H   0  0
    1.4342    3.2496   -6.4239 H   0  0
    2.8609    2.4984   -5.6816 H   0  0
    0.7455   -2.7423    4.0034 H   0  0
   -1.0200   -3.0794    3.9806 H   0  0
   -0.3897   -1.5473    3.3430 H   0  0
    2.8998   -0.1448   -8.1951 H   0  0
    2.1257   -1.5650   -7.4258 H   0  0
    3.6506   -1.7564   -8.3305 H   0  0
    1.3108   -3.5747   -0.1460 H   0  0
   -0.3628   -3.0945   -0.5293 H   0  0
  1  2  1  0
  1  4  2  0
  2  5  2  0
  3  4  1  0
  3  6  2  0
  4  7  1  0
  5  6  1  0
  5 32  1  0
  6 33  1  0
  7  8  2  0
  8  9  1  0
  9 25  1  0
  9 26  2  0
 10 19  1  0
 10 27  2  0
 10 34  1  0
 11 20  1  0
 11 28  2  0
 11 35  1  0
 12 21  1  0
 12 29  2  0
 12 36  1  0
 13 22  1  0
 13 30  2  0
 13 37  1  0
 14 15  1  0
 14 16  1  0
 14 34  1  0
 15 17  1  0
 15 35  1  0
 16 18  1  0
 16 36  1  0
 17 24  1  0
 17 31  1  0
 18 31  1  0
 18 32  1  0
 23 33  1  0
 24 37  1  0
  1 38  1  0
  2 39  1  0
  3 40  1  0
  7 41  1  0
  8 42  1  0
 14 43  1  0
 15 44  1  0
 16 45  1  0
 17 46  1  0
 18 47  1  0
 19 48  1  0
 19 49  1  0
 19 50  1  0
 20 51  1  0
 20 52  1  0
 20 53  1  0
 21 54  1  0
 21 55  1  0
 21 56  1  0
 22 57  1  0
 22 58  1  0
 22 59  1  0
 23 60  1  0
 23 61  1  0
 23 62  1  0
 24 63  1  0
 24 64  1  0
M  CHG  1  25  -1
M  END
> <Name>
BR010390

$$$$
BR010391
  SciTegic05062102053D

 66 67  0  0  1  0            999 V2000
    4.7830   -4.1608   -4.1695 C   0  0
    3.5936   -3.4709   -3.9355 C   0  0
    5.3213   -2.6268   -5.9567 C   0  0
    5.6469   -3.7388   -5.1801 C   0  0
    3.2680   -2.3589   -4.7121 C   0  0
    4.1318   -1.9368   -5.7227 C   0  0
    9.4396   -4.6120   -4.8365 C   0  0
   -0.1514    2.7277   -1.1123 C   0  0
   -2.1676   -0.5982   -0.6712 C   0  0
    1.0128    1.9772   -4.7638 C   0  0
   -0.0513   -3.2307    2.0855 C   0  0
    0.7233    0.6893   -1.9268 C   0  0  1  0  0  0
    0.1626   -0.3970   -1.0083 C   0  0  2  0  0  0
    1.0679    0.1207   -3.3030 C   0  0  2  0  0  0
    1.1199   -1.5934   -0.9760 C   0  0  1  0  0  0
    1.9375   -1.1315   -3.1696 C   0  0  1  0  0  0
   -1.2083    3.7587   -1.3695 C   0  0
   -3.4304   -1.0693   -1.3265 C   0  0
    1.8918    2.9615   -5.4741 C   0  0
   -0.1861   -2.6172    3.4462 C   0  0
    3.0783   -1.0916   -7.6801 C   0  0
    6.9199   -4.4749   -5.4287 C   0  0
    8.0885   -3.9275   -4.6051 C   0  0
    0.5950   -2.7518   -0.1363 C   0  0
   10.3941   -4.1025   -4.1806 O   0  5
    9.4511   -5.5872   -5.6364 O   0  0
    0.6512    2.7844   -0.1904 O   0  0
   -2.1187   -0.1064    0.4481 O   0  0
   -0.2082    1.9681   -4.8419 O   0  0
   -0.3267   -4.3949    1.8285 O   0  0
    1.3267   -2.0883   -2.3049 O   0  0
    2.0984   -1.6910   -4.4725 O   0  0
    3.8242   -0.8528   -6.4882 O   0  0
   -0.2303    1.7405   -2.0532 O   0  0
   -1.1121   -0.8043   -1.5106 O   0  0
    1.7818    1.1166   -4.0347 O   0  0
    0.4192   -2.3021    1.1952 O   0  0
    5.0293   -5.0251   -3.5585 H   0  0
    2.9250   -3.8053   -3.1470 H   0  0
    5.9933   -2.2954   -6.7447 H   0  0
    1.6205    1.1273   -1.4713 H   0  0
   -0.0004    0.0130   -0.0050 H   0  0
    0.1516   -0.0940   -3.8664 H   0  0
    2.0891   -1.2829   -0.5645 H   0  0
    2.9371   -0.8744   -2.7968 H   0  0
   -0.8169    4.5334   -2.0335 H   0  0
   -1.5403    4.1936   -0.4233 H   0  0
   -2.0667    3.2849   -1.8544 H   0  0
   -3.8817   -0.2512   -1.8932 H   0  0
   -4.1244   -1.4424   -0.5691 H   0  0
   -3.1981   -1.8852   -2.0171 H   0  0
    2.0530    3.8384   -4.8422 H   0  0
    1.4342    3.2496   -6.4239 H   0  0
    2.8609    2.4984   -5.6816 H   0  0
    0.7455   -2.7423    4.0034 H   0  0
   -1.0200   -3.0794    3.9806 H   0  0
   -0.3897   -1.5473    3.3430 H   0  0
    2.9011   -0.1446   -8.1958 H   0  0
    2.1261   -1.5644   -7.4265 H   0  0
    3.6511   -1.7566   -8.3307 H   0  0
    6.7866   -5.5448   -5.2050 H   0  0
    7.1772   -4.4330   -6.4984 H   0  0
    7.8546   -4.0120   -3.5358 H   0  0
    8.2185   -2.8586   -4.8179 H   0  0
    1.3108   -3.5747   -0.1460 H   0  0
   -0.3628   -3.0945   -0.5293 H   0  0
  1  2  1  0
  1  4  2  0
  2  5  2  0
  3  4  1  0
  3  6  2  0
  4 22  1  0
  5  6  1  0
  5 32  1  0
  6 33  1  0
  7 23  1  0
  7 25  1  0
  7 26  2  0
  8 17  1  0
  8 27  2  0
  8 34  1  0
  9 18  1  0
  9 28  2  0
  9 35  1  0
 10 19  1  0
 10 29  2  0
 10 36  1  0
 11 20  1  0
 11 30  2  0
 11 37  1  0
 12 13  1  0
 12 14  1  0
 12 34  1  0
 13 15  1  0
 13 35  1  0
 14 16  1  0
 14 36  1  0
 15 24  1  0
 15 31  1  0
 16 31  1  0
 16 32  1  0
 21 33  1  0
 22 23  1  0
 24 37  1  0
  1 38  1  0
  2 39  1  0
  3 40  1  0
 12 41  1  0
 13 42  1  0
 14 43  1  0
 15 44  1  0
 16 45  1  0
 17 46  1  0
 17 47  1  0
 17 48  1  0
 18 49  1  0
 18 50  1  0
 18 51  1  0
 19 52  1  0
 19 53  1  0
 19 54  1  0
 20 55  1  0
 20 56  1  0
 20 57  1  0
 21 58  1  0
 21 59  1  0
 21 60  1  0
 22 61  1  0
 22 62  1  0
 23 63  1  0
 23 64  1  0
 24 65  1  0
 24 66  1  0
M  CHG  1  25  -1
M  END
> <Name>
BR010391

$$$$
BR010392
  SciTegic05062102053D

 77 79  0  0  1  0            999 V2000
    4.9863   -3.9285   -4.2439 C   0  0
    4.1963   -2.7823   -4.1567 C   0  0
    3.1090   -5.1541   -5.1444 C   0  0
    4.4427   -5.1144   -4.7378 C   0  0
    2.8626   -2.8220   -4.5633 C   0  0
    2.3189   -4.0079   -5.0571 C   0  0
    1.9231   -8.6800   -0.9634 C   0  0
    1.0695   -6.7699   -1.9493 C   0  0
   -0.1514    2.7277   -1.1123 C   0  0
   -2.1676   -0.5982   -0.6712 C   0  0
    1.0128    1.9772   -4.7638 C   0  0
    1.3788   -4.6871    0.9702 C   0  0
    3.8247   -7.6518   -3.2363 C   0  0
    0.4308   -8.7922   -0.8064 C   0  0
   -0.1340   -7.5284   -1.4588 C   0  0
    0.7233    0.6893   -1.9268 C   0  0  1  0  0  0
    0.1626   -0.3970   -1.0083 C   0  0  2  0  0  0
    1.0679    0.1207   -3.3030 C   0  0  2  0  0  0
    1.1199   -1.5934   -0.9760 C   0  0  1  0  0  0
    1.9375   -1.1315   -3.1696 C   0  0  1  0  0  0
   -1.2083    3.7587   -1.3695 C   0  0
   -3.4304   -1.0693   -1.3265 C   0  0
    1.8918    2.9615   -5.4741 C   0  0
    2.6204   -5.4762    1.2561 C   0  0
    0.5393   -5.3092   -5.9490 C   0  0
    5.2880   -6.3393   -4.8335 C   0  0
    5.2278   -7.1879   -3.5568 C   0  0
    0.5950   -2.7518   -0.1363 C   0  0
    2.1522   -7.5407   -1.6672 N   0  0
    2.7334   -9.4866   -0.5341 O   0  0
    1.0322   -5.6800   -2.4990 O   0  0
    0.6512    2.7844   -0.1904 O   0  0
   -2.1187   -0.1064    0.4481 O   0  0
   -0.2082    1.9681   -4.8419 O   0  0
    0.2638   -4.9961    1.3680 O   0  0
    3.1382   -8.3668   -3.9538 O   0  0
    1.3267   -2.0883   -2.3049 O   0  0
    2.0984   -1.6910   -4.4725 O   0  0
    1.0175   -4.0590   -5.4565 O   0  0
   -0.2303    1.7405   -2.0532 O   0  0
   -1.1121   -0.8043   -1.5106 O   0  0
    1.7818    1.1166   -4.0347 O   0  0
    1.6836   -3.5897    0.2091 O   0  0
    3.4590   -7.1405   -2.0227 O   0  0
    6.0248   -3.8880   -3.9264 H   0  0
    4.6260   -1.8621   -3.7706 H   0  0
    2.6829   -6.0771   -5.5303 H   0  0
    0.0717   -9.6941   -1.3106 H   0  0
    0.1721   -8.8401    0.2553 H   0  0
   -0.6855   -6.9211   -0.7352 H   0  0
   -0.7864   -7.7738   -2.3019 H   0  0
    1.6205    1.1273   -1.4713 H   0  0
   -0.0004    0.0130   -0.0050 H   0  0
    0.1516   -0.0940   -3.8664 H   0  0
    2.0891   -1.2829   -0.5645 H   0  0
    2.9371   -0.8744   -2.7968 H   0  0
   -0.8169    4.5334   -2.0335 H   0  0
   -1.5403    4.1936   -0.4233 H   0  0
   -2.0667    3.2849   -1.8544 H   0  0
   -3.8817   -0.2512   -1.8932 H   0  0
   -4.1244   -1.4424   -0.5691 H   0  0
   -3.1981   -1.8852   -2.0171 H   0  0
    2.0530    3.8384   -4.8422 H   0  0
    1.4342    3.2496   -6.4239 H   0  0
    2.8609    2.4984   -5.6816 H   0  0
    2.7751   -6.2214    0.4720 H   0  0
    2.5373   -5.9570    2.2341 H   0  0
    3.4824   -4.8028    1.2720 H   0  0
   -0.5115   -5.2121   -6.2326 H   0  0
    0.6499   -6.0730   -5.1752 H   0  0
    1.1261   -5.5938   -6.8256 H   0  0
    4.9780   -6.9505   -5.6979 H   0  0
    6.3352   -6.0647   -5.0453 H   0  0
    5.8620   -8.0749   -3.6720 H   0  0
    5.5963   -6.6026   -2.7060 H   0  0
   -0.1340   -3.3273   -0.7079 H   0  0
    0.1302   -2.3729    0.7745 H   0  0
  1  2  1  0
  1  4  2  0
  2  5  2  0
  3  4  1  0
  3  6  2  0
  4 26  1  0
  5  6  1  0
  5 38  1  0
  6 39  1  0
  7 14  1  0
  7 29  1  0
  7 30  2  0
  8 15  1  0
  8 29  1  0
  8 31  2  0
  9 21  1  0
  9 32  2  0
  9 40  1  0
 10 22  1  0
 10 33  2  0
 10 41  1  0
 11 23  1  0
 11 34  2  0
 11 42  1  0
 12 24  1  0
 12 35  2  0
 12 43  1  0
 13 27  1  0
 13 36  2  0
 13 44  1  0
 14 15  1  0
 16 17  1  0
 16 18  1  0
 16 40  1  0
 17 19  1  0
 17 41  1  0
 18 20  1  0
 18 42  1  0
 19 28  1  0
 19 37  1  0
 20 37  1  0
 20 38  1  0
 25 39  1  0
 26 27  1  0
 28 43  1  0
 29 44  1  0
  1 45  1  0
  2 46  1  0
  3 47  1  0
 14 48  1  0
 14 49  1  0
 15 50  1  0
 15 51  1  0
 16 52  1  0
 17 53  1  0
 18 54  1  0
 19 55  1  0
 20 56  1  0
 21 57  1  0
 21 58  1  0
 21 59  1  0
 22 60  1  0
 22 61  1  0
 22 62  1  0
 23 63  1  0
 23 64  1  0
 23 65  1  0
 24 66  1  0
 24 67  1  0
 24 68  1  0
 25 69  1  0
 25 70  1  0
 25 71  1  0
 26 72  1  0
 26 73  1  0
 27 74  1  0
 27 75  1  0
 28 76  1  0
 28 77  1  0
M  END
> <Name>
BR010392

$$$$
BR010393
  SciTegic05062102053D

 35 35  0  0  1  0            999 V2000
    1.8670   -0.9952   -0.2644 C   0  0
    0.7776   -0.3333   -0.6726 C   0  0
    4.6280   -3.0808   -1.1565 C   0  0
    1.8142   -3.5318   -3.7601 C   0  0
    1.5667   -0.1756   -6.5796 C   0  0
    2.8866   -1.4858   -1.2425 C   0  0  2  0  0  0
    2.3150   -1.4981   -2.6659 C   0  0  2  0  0  0
    1.5442   -0.1912   -2.9152 C   0  0  1  0  0  0
    4.9467   -4.4744   -0.7066 C   0  0
    0.8154   -4.6483   -3.8020 C   0  0
    2.7621   -0.2743   -7.4781 C   0  0
    0.9228   -0.1306   -4.3065 C   0  0
    5.4320   -2.3355   -1.6998 O   0  0
    2.8034   -3.4701   -4.4777 O   0  0
    0.4151   -0.0739   -6.9802 O   0  0
    0.4758    0.0007   -1.9667 O   0  0
    3.3245   -2.7854   -0.8673 O   0  0
    1.4446   -2.6220   -2.8130 O   0  0
    1.9592   -0.2159   -5.2677 O   0  0
    2.0156   -1.1861    0.7938 H   0  0
   -0.0001   -0.0002    0.0000 H   0  0
    3.7530   -0.8155   -1.1911 H   0  0
    3.1305   -1.6255   -3.3873 H   0  0
    2.2320    0.6592   -2.8128 H   0  0
    5.3110   -4.4574    0.3235 H   0  0
    5.6920   -4.9176   -1.3718 H   0  0
    4.0395   -5.0844   -0.7456 H   0  0
    1.1120   -5.4375   -3.1068 H   0  0
    0.7388   -5.0395   -4.8196 H   0  0
   -0.1654   -4.2689   -3.5007 H   0  0
    3.1466    0.7253   -7.6951 H   0  0
    2.4903   -0.7917   -8.4016 H   0  0
    3.5466   -0.8482   -6.9762 H   0  0
    0.3889    0.8111   -4.4355 H   0  0
    0.2347   -0.9650   -4.4441 H   0  0
  1  2  2  0
  1  6  1  0
  2 16  1  0
  3  9  1  0
  3 13  2  0
  3 17  1  0
  4 10  1  0
  4 14  2  0
  4 18  1  0
  5 11  1  0
  5 15  2  0
  5 19  1  0
  6  7  1  0
  6 17  1  0
  7  8  1  0
  7 18  1  0
  8 12  1  0
  8 16  1  0
 12 19  1  0
  1 20  1  0
  2 21  1  0
  6 22  1  0
  7 23  1  0
  8 24  1  0
  9 25  1  0
  9 26  1  0
  9 27  1  0
 10 28  1  0
 10 29  1  0
 10 30  1  0
 11 31  1  0
 11 32  1  0
 11 33  1  0
 12 34  1  0
 12 35  1  0
M  END
> <Name>
BR010393

$$$$
BR010394
  SciTegic05062102053D

 42 42  0  0  1  0            999 V2000
   -0.8835   -2.1836   -2.7101 C   0  0
    0.4752   -3.3440    0.7752 C   0  0
   -2.1052   -2.3731    3.9774 C   0  0
    0.7637    0.5316   -0.9930 C   0  0  2  0  0  0
   -0.2883   -0.5747   -1.0854 C   0  0  2  0  0  0
   -0.4875   -1.2441    0.2798 C   0  0  2  0  0  0
   -0.7569   -0.1896    1.3616 C   0  0  1  0  0  0
    0.4357    1.5017    0.1466 C   0  0  2  0  0  0
   -0.3046   -3.1684   -3.6802 C   0  0
    1.7725   -4.0075    1.1261 C   0  0
   -3.2536   -3.3284    3.8567 C   0  0
   -0.8362   -0.7962    2.7581 C   0  0
    2.9333    2.1776   -2.8572 N   0  5
    0.8119    1.2708   -2.2609 N   0  0
    1.9202    1.7414   -2.5667 N   0  3
   -0.8462    3.4551    0.5953 N   0  3
    0.0917    3.6114    1.3782 O   0  5
   -2.0830   -1.9975   -2.5563 O   0  0
   -0.5873   -3.9384    0.6533 O   0  0
   -1.4596   -2.2040    5.0030 O   0  0
   -1.8282    4.1730    0.3930 O   0  0
    0.2922    0.7903    1.3806 O   0  0
    0.1237   -1.5446   -2.0442 O   0  0
    0.6752   -2.0040    0.6190 O   0  0
   -1.8979   -1.7331    2.7841 O   0  0
   -0.7335    2.2588   -0.1622 O   0  0
    1.7453    0.0830   -0.8255 H   0  0
   -1.2405   -0.1560   -1.4326 H   0  0
   -1.3276   -1.9601    0.2194 H   0  0
   -1.7074    0.3116    1.1564 H   0  0
    1.2638    2.2096    0.2648 H   0  0
   -0.1418   -2.6851   -4.6466 H   0  0
   -0.9763   -4.0241   -3.7853 H   0  0
    0.6577   -3.5263   -3.3028 H   0  0
    2.2893   -4.3169    0.2144 H   0  0
    1.5858   -4.8674    1.7743 H   0  0
    2.4086   -3.2984    1.6639 H   0  0
   -4.1868   -2.8208    4.1127 H   0  0
   -3.0908   -4.1888    4.5107 H   0  0
   -3.3222   -3.6844    2.8246 H   0  0
   -1.0282   -0.0147    3.4939 H   0  0
    0.0981   -1.3046    2.9980 H   0  0
  1  9  1  0
  1 18  2  0
  1 23  1  0
  2 10  1  0
  2 19  2  0
  2 24  1  0
  3 11  1  0
  3 20  2  0
  3 25  1  0
  4  5  1  0
  4  8  1  0
  4 14  1  0
  5  6  1  0
  5 23  1  0
  6  7  1  0
  6 24  1  0
  7 12  1  0
  7 22  1  0
  8 22  1  0
  8 26  1  0
 12 25  1  0
 13 15  2  0
 14 15  2  0
 16 17  1  0
 16 21  2  0
 16 26  1  0
  4 27  1  0
  5 28  1  0
  6 29  1  0
  7 30  1  0
  8 31  1  0
  9 32  1  0
  9 33  1  0
  9 34  1  0
 10 35  1  0
 10 36  1  0
 10 37  1  0
 11 38  1  0
 11 39  1  0
 11 40  1  0
 12 41  1  0
 12 42  1  0
M  CHG  4  13  -1  15   1  16   1  17  -1
M  END
> <Name>
BR010394

$$$$
BR010395
  SciTegic05062102053D

 42 42  0  0  1  0            999 V2000
   -0.2384   -1.5683   -3.3218 C   0  0
    0.4711   -3.4148    0.0644 C   0  0
   -2.9299   -3.3059    2.6480 C   0  0
    0.7079    0.7838   -0.7561 C   0  0  2  0  0  0
   -0.1711   -0.3429   -1.3028 C   0  0  2  0  0  0
   -0.5847   -1.3172   -0.1966 C   0  0  2  0  0  0
   -1.1887   -0.5460    0.9818 C   0  0  1  0  0  0
    0.0814    1.4146    0.4920 C   0  0  1  0  0  0
    0.6325   -2.2665   -4.3219 C   0  0
    1.7265   -4.0633    0.5639 C   0  0
   -3.9332   -4.2407    2.0432 C   0  0
   -1.5451   -1.4570    2.1503 C   0  0
    3.0408    2.2752   -2.5530 N   0  5
    0.8301    1.8236   -1.7903 N   0  0
    1.9847    2.0541   -2.1833 N   0  3
    0.4389    3.2913    1.9098 N   0  3
   -0.7805    3.1534    2.0148 O   0  5
   -1.4569   -1.4962   -3.4065 O   0  0
   -0.4693   -4.0272   -0.4231 O   0  0
   -2.5615   -3.3569    3.8137 O   0  0
    1.1832    4.1224    2.4353 O   0  0
   -0.2426    0.4167    1.4612 O   0  0
    0.5336   -1.0393   -2.3266 O   0  0
    0.5527   -2.0645    0.2401 O   0  0
   -2.5008   -2.4050    1.7096 O   0  0
    1.0265    2.3281    1.0470 O   0  0
    1.7133    0.4077   -0.5344 H   0  0
   -1.0717    0.0853   -1.7604 H   0  0
   -1.3111   -2.0456   -0.5994 H   0  0
   -2.0956   -0.0245    0.6617 H   0  0
   -0.8235    1.9809    0.2358 H   0  0
    0.9368   -1.5649   -5.1025 H   0  0
    0.0950   -3.1144   -4.7538 H   0  0
    1.5298   -2.6421   -3.8217 H   0  0
    2.4580   -4.1275   -0.2454 H   0  0
    1.4992   -5.0571    0.9578 H   0  0
    2.1510   -3.4584    1.3704 H   0  0
   -4.9396   -3.8315    2.1612 H   0  0
   -3.8582   -5.2226    2.5173 H   0  0
   -3.7258   -4.3537    0.9752 H   0  0
   -1.9706   -0.8703    2.9653 H   0  0
   -0.6552   -1.9806    2.5012 H   0  0
  1  9  1  0
  1 18  2  0
  1 23  1  0
  2 10  1  0
  2 19  2  0
  2 24  1  0
  3 11  1  0
  3 20  2  0
  3 25  1  0
  4  5  1  0
  4  8  1  0
  4 14  1  0
  5  6  1  0
  5 23  1  0
  6  7  1  0
  6 24  1  0
  7 12  1  0
  7 22  1  0
  8 22  1  0
  8 26  1  0
 12 25  1  0
 13 15  2  0
 14 15  2  0
 16 17  1  0
 16 21  2  0
 16 26  1  0
  4 27  1  0
  5 28  1  0
  6 29  1  0
  7 30  1  0
  8 31  1  0
  9 32  1  0
  9 33  1  0
  9 34  1  0
 10 35  1  0
 10 36  1  0
 10 37  1  0
 11 38  1  0
 11 39  1  0
 11 40  1  0
 12 41  1  0
 12 42  1  0
M  CHG  4  13  -1  15   1  16   1  17  -1
M  END
> <Name>
BR010395

$$$$
BR010396
  SciTegic05062102053D

 39 39  0  0  1  0            999 V2000
    1.5223   -3.0786    1.0995 C   0  0
   -1.3347   -1.1406    3.0113 C   0  0
   -4.9168   -1.1438    0.7507 C   0  0
    1.2893    0.3910    0.0781 C   0  0  2  0  0  0
    0.7221   -1.0152    0.2723 C   0  0  2  0  0  0
   -0.7348   -0.9362    0.7347 C   0  0  2  0  0  0
   -1.5522   -0.0753   -0.2342 C   0  0  1  0  0  0
    0.3883    1.2472   -0.8111 C   0  0  2  0  0  0
    2.3445   -3.6849    2.1961 C   0  0
   -1.3330   -0.4020    4.3154 C   0  0
   -5.4417   -2.5466    0.8042 C   0  0
   -2.9888    0.1231    0.2391 C   0  0
    4.1500    2.0306    0.2049 N   0  5
    2.6473    0.3105   -0.4737 N   0  0
    3.4262    1.2097   -0.1166 N   0  3
    0.9840   -3.7238    0.2100 O   0  0
   -1.7609   -2.2786    2.8690 O   0  0
   -5.5756   -0.1542    1.0401 O   0  0
   -0.9738    1.2298   -0.3814 O   0  0
    1.4758   -1.7224    1.2538 O   0  0
   -0.7955   -0.3514    2.0380 O   0  0
   -3.6113   -1.1451    0.3351 O   0  0
    0.5223    0.7990   -2.7156 Br  0  0
    1.3710    0.8688    1.0587 H   0  0
    0.7841   -1.5885   -0.6598 H   0  0
   -1.1588   -1.9434    0.8149 H   0  0
   -1.5895   -0.5647   -1.2108 H   0  0
    0.7262    2.2883   -0.7773 H   0  0
    3.3914   -3.7396    1.8878 H   0  0
    1.9619   -4.6792    2.4401 H   0  0
    2.2765   -3.0574    3.0895 H   0  0
   -0.3996   -0.5951    4.8497 H   0  0
   -2.1923   -0.7093    4.9168 H   0  0
   -1.4092    0.6723    4.1238 H   0  0
   -5.8821   -2.8147   -0.1593 H   0  0
   -6.1810   -2.6357    1.6042 H   0  0
   -4.6175   -3.2344    1.0143 H   0  0
   -3.5347    0.7390   -0.4759 H   0  0
   -2.9957    0.6027    1.2180 H   0  0
  1  9  1  0
  1 16  2  0
  1 20  1  0
  2 10  1  0
  2 17  2  0
  2 21  1  0
  3 11  1  0
  3 18  2  0
  3 22  1  0
  4  5  1  0
  4  8  1  0
  4 14  1  0
  5  6  1  0
  5 20  1  0
  6  7  1  0
  6 21  1  0
  7 12  1  0
  7 19  1  0
  8 19  1  0
  8 23  1  0
 12 22  1  0
 13 15  2  0
 14 15  2  0
  4 24  1  0
  5 25  1  0
  6 26  1  0
  7 27  1  0
  8 28  1  0
  9 29  1  0
  9 30  1  0
  9 31  1  0
 10 32  1  0
 10 33  1  0
 10 34  1  0
 11 35  1  0
 11 36  1  0
 11 37  1  0
 12 38  1  0
 12 39  1  0
M  CHG  2  13  -1  15   1
M  END
> <Name>
BR010396

$$$$
BR010397
  SciTegic05062102053D

 56 57  0  0  1  0            999 V2000
   -0.8220    4.2893    3.5244 C   0  0
   -0.2952    3.1987    2.8326 C   0  0
    0.2733    5.7950    1.9847 C   0  0
   -0.5378    5.5875    3.1004 C   0  0
    0.5159    3.4062    1.7170 C   0  0
    0.8001    4.7043    1.2930 C   0  0
   -1.0889    6.7245    3.8205 C   0  0
   -0.2384   -1.5683   -3.3218 C   0  0
    0.4711   -3.4148    0.0644 C   0  0
   -2.9299   -3.3059    2.6480 C   0  0
    0.7079    0.7838   -0.7561 C   0  0  2  0  0  0
   -0.1711   -0.3429   -1.3028 C   0  0  2  0  0  0
   -0.5847   -1.3172   -0.1966 C   0  0  2  0  0  0
   -1.1887   -0.5460    0.9818 C   0  0  1  0  0  0
    0.0814    1.4146    0.4920 C   0  0  1  0  0  0
    0.6325   -2.2665   -4.3219 C   0  0
    1.7265   -4.0633    0.5639 C   0  0
   -3.9332   -4.2407    2.0433 C   0  0
    2.9913    5.0420    0.4325 C   0  0
   -1.5451   -1.4570    2.1503 C   0  0
    3.0409    2.2752   -2.5530 N   0  5
    0.8301    1.8236   -1.7903 N   0  0
    1.9847    2.0541   -2.1833 N   0  3
   -1.8140    6.6069    4.8122 O   0  0
   -1.4569   -1.4962   -3.4064 O   0  0
   -0.4693   -4.0272   -0.4231 O   0  0
   -2.5615   -3.3569    3.8137 O   0  0
   -0.2426    0.4167    1.4612 O   0  0
    1.0265    2.3281    1.0470 O   0  0
    1.5889    4.9201    0.2035 O   0  0
    0.5336   -1.0393   -2.3266 O   0  0
    0.5527   -2.0645    0.2401 O   0  0
   -2.5008   -2.4050    1.7096 O   0  0
   -1.4529    4.1158    4.3923 H   0  0
   -0.5200    2.1900    3.1681 H   0  0
    0.4948    6.8059    1.6501 H   0  0
   -0.8346    7.7397    3.4451 H   0  0
    1.7133    0.4077   -0.5344 H   0  0
   -1.0717    0.0853   -1.7604 H   0  0
   -1.3111   -2.0456   -0.5994 H   0  0
   -2.0956   -0.0245    0.6617 H   0  0
   -0.8235    1.9809    0.2358 H   0  0
    0.9367   -1.5649   -5.1025 H   0  0
    0.0950   -3.1145   -4.7538 H   0  0
    1.5298   -2.6421   -3.8217 H   0  0
    2.4580   -4.1275   -0.2454 H   0  0
    1.4992   -5.0571    0.9578 H   0  0
    2.1510   -3.4584    1.3704 H   0  0
   -4.9396   -3.8315    2.1612 H   0  0
   -3.8582   -5.2226    2.5173 H   0  0
   -3.7258   -4.3537    0.9752 H   0  0
    3.5032    5.2114   -0.5180 H   0  0
    3.3654    4.1288    0.9023 H   0  0
    3.1706    5.8908    1.0966 H   0  0
   -1.9706   -0.8703    2.9653 H   0  0
   -0.6552   -1.9806    2.5012 H   0  0
  1  2  2  0
  1  4  1  0
  2  5  1  0
  3  4  2  0
  3  6  1  0
  4  7  1  0
  5  6  2  0
  5 29  1  0
  6 30  1  0
  7 24  2  0
  8 16  1  0
  8 25  2  0
  8 31  1  0
  9 17  1  0
  9 26  2  0
  9 32  1  0
 10 18  1  0
 10 27  2  0
 10 33  1  0
 11 12  1  0
 11 15  1  0
 11 22  1  0
 12 13  1  0
 12 31  1  0
 13 14  1  0
 13 32  1  0
 14 20  1  0
 14 28  1  0
 15 28  1  0
 15 29  1  0
 19 30  1  0
 20 33  1  0
 21 23  2  0
 22 23  2  0
  1 34  1  0
  2 35  1  0
  3 36  1  0
  7 37  1  0
 11 38  1  0
 12 39  1  0
 13 40  1  0
 14 41  1  0
 15 42  1  0
 16 43  1  0
 16 44  1  0
 16 45  1  0
 17 46  1  0
 17 47  1  0
 17 48  1  0
 18 49  1  0
 18 50  1  0
 18 51  1  0
 19 52  1  0
 19 53  1  0
 19 54  1  0
 20 55  1  0
 20 56  1  0
M  CHG  2  21  -1  23   1
M  END
> <Name>
BR010397

$$$$
BR010398
  SciTegic05062102053D

 60 61  0  0  1  0            999 V2000
   -0.8220    4.2886    3.5247 C   0  0
   -0.2951    3.1982    2.8326 C   0  0
    0.2730    5.7949    1.9856 C   0  0
   -0.5380    5.5869    3.1012 C   0  0
    0.5159    3.4062    1.7170 C   0  0
    0.8000    4.7045    1.2934 C   0  0
   -1.0898    6.7236    3.8215 C   0  0
   -0.6107    7.9869    3.7713 C   0  0
   -1.2434    9.1344    4.5730 C   0  0
   -0.2384   -1.5683   -3.3218 C   0  0
    0.4711   -3.4148    0.0644 C   0  0
   -2.9299   -3.3059    2.6480 C   0  0
    0.7079    0.7838   -0.7561 C   0  0  2  0  0  0
   -0.1711   -0.3429   -1.3028 C   0  0  2  0  0  0
   -0.5847   -1.3172   -0.1966 C   0  0  2  0  0  0
   -1.1887   -0.5460    0.9818 C   0  0  1  0  0  0
    0.0814    1.4146    0.4920 C   0  0  1  0  0  0
    0.6325   -2.2665   -4.3219 C   0  0
    1.7265   -4.0633    0.5639 C   0  0
   -3.9332   -4.2407    2.0433 C   0  0
    2.9934    5.0419    0.4385 C   0  0
   -1.5451   -1.4570    2.1503 C   0  0
    3.0409    2.2752   -2.5530 N   0  5
    0.8301    1.8236   -1.7903 N   0  0
    1.9847    2.0541   -2.1833 N   0  3
   -2.2400    8.7847    5.2723 O   0  5
   -0.7166   10.2759    4.4564 O   0  0
   -1.4569   -1.4962   -3.4064 O   0  0
   -0.4693   -4.0272   -0.4231 O   0  0
   -2.5615   -3.3569    3.8137 O   0  0
   -0.2426    0.4167    1.4612 O   0  0
    1.0265    2.3281    1.0470 O   0  0
    1.5917    4.9193    0.2057 O   0  0
    0.5336   -1.0393   -2.3266 O   0  0
    0.5527   -2.0645    0.2401 O   0  0
   -2.5008   -2.4050    1.7096 O   0  0
   -1.4535    4.1108    4.3918 H   0  0
   -0.5201    2.1894    3.1679 H   0  0
    0.4992    6.8040    1.6481 H   0  0
   -1.9497    6.5103    4.4657 H   0  0
    0.2615    8.2063    3.1569 H   0  0
    1.7133    0.4077   -0.5344 H   0  0
   -1.0717    0.0853   -1.7604 H   0  0
   -1.3111   -2.0456   -0.5994 H   0  0
   -2.0956   -0.0245    0.6617 H   0  0
   -0.8235    1.9809    0.2358 H   0  0
    0.9367   -1.5649   -5.1025 H   0  0
    0.0950   -3.1145   -4.7538 H   0  0
    1.5298   -2.6421   -3.8217 H   0  0
    2.4580   -4.1275   -0.2454 H   0  0
    1.4992   -5.0571    0.9578 H   0  0
    2.1510   -3.4584    1.3704 H   0  0
   -4.9396   -3.8315    2.1612 H   0  0
   -3.8582   -5.2226    2.5173 H   0  0
   -3.7258   -4.3537    0.9752 H   0  0
    3.5078    5.2104   -0.5108 H   0  0
    3.3665    4.1294    0.9103 H   0  0
    3.1706    5.8915    1.1021 H   0  0
   -1.9706   -0.8703    2.9653 H   0  0
   -0.6552   -1.9806    2.5012 H   0  0
  1  2  2  0
  1  4  1  0
  2  5  1  0
  3  4  2  0
  3  6  1  0
  4  7  1  0
  5  6  2  0
  5 32  1  0
  6 33  1  0
  7  8  2  0
  8  9  1  0
  9 26  1  0
  9 27  2  0
 10 18  1  0
 10 28  2  0
 10 34  1  0
 11 19  1  0
 11 29  2  0
 11 35  1  0
 12 20  1  0
 12 30  2  0
 12 36  1  0
 13 14  1  0
 13 17  1  0
 13 24  1  0
 14 15  1  0
 14 34  1  0
 15 16  1  0
 15 35  1  0
 16 22  1  0
 16 31  1  0
 17 31  1  0
 17 32  1  0
 21 33  1  0
 22 36  1  0
 23 25  2  0
 24 25  2  0
  1 37  1  0
  2 38  1  0
  3 39  1  0
  7 40  1  0
  8 41  1  0
 13 42  1  0
 14 43  1  0
 15 44  1  0
 16 45  1  0
 17 46  1  0
 18 47  1  0
 18 48  1  0
 18 49  1  0
 19 50  1  0
 19 51  1  0
 19 52  1  0
 20 53  1  0
 20 54  1  0
 20 55  1  0
 21 56  1  0
 21 57  1  0
 21 58  1  0
 22 59  1  0
 22 60  1  0
M  CHG  3  23  -1  25   1  26  -1
M  END
> <Name>
BR010398

$$$$
BR010399
  SciTegic05062102053D

 71 73  0  0  1  0            999 V2000
   -0.8220    4.2886    3.5247 C   0  0
   -0.2951    3.1982    2.8326 C   0  0
    0.2730    5.7949    1.9856 C   0  0
   -0.5380    5.5869    3.1012 C   0  0
    0.5159    3.4062    1.7170 C   0  0
    0.8000    4.7045    1.2934 C   0  0
   -0.7049   11.6127    6.2900 C   0  0
   -2.0592   12.1178    4.4844 C   0  0
   -1.0898    6.7236    3.8215 C   0  0
   -0.6115    7.9868    3.7719 C   0  0
   -1.2585    9.0602    4.5611 C   0  0
   -0.2384   -1.5683   -3.3218 C   0  0
    0.4711   -3.4148    0.0644 C   0  0
   -2.9299   -3.3059    2.6480 C   0  0
   -1.5364   12.7834    6.7399 C   0  0
   -2.4325   13.1176    5.5454 C   0  0
    0.7079    0.7838   -0.7561 C   0  0  2  0  0  0
   -0.1711   -0.3429   -1.3028 C   0  0  2  0  0  0
   -0.5847   -1.3172   -0.1966 C   0  0  2  0  0  0
   -1.1887   -0.5460    0.9818 C   0  0  1  0  0  0
    0.0814    1.4146    0.4920 C   0  0  1  0  0  0
    0.6325   -2.2665   -4.3219 C   0  0
    1.7265   -4.0633    0.5639 C   0  0
   -3.9332   -4.2407    2.0433 C   0  0
    2.9934    5.0419    0.4385 C   0  0
   -1.5451   -1.4570    2.1503 C   0  0
    3.0409    2.2752   -2.5530 N   0  5
    0.8301    1.8236   -1.7903 N   0  0
    1.9847    2.0541   -2.1833 N   0  3
   -1.1291   11.2969    5.0385 N   0  0
    0.1648   11.0755    6.9582 O   0  0
   -2.5343   12.0821    3.3600 O   0  0
   -2.2284    8.9153    5.2888 O   0  0
   -1.4569   -1.4962   -3.4064 O   0  0
   -0.4693   -4.0272   -0.4231 O   0  0
   -2.5615   -3.3569    3.8137 O   0  0
   -0.2426    0.4167    1.4612 O   0  0
    1.0265    2.3281    1.0470 O   0  0
    1.5917    4.9193    0.2057 O   0  0
   -0.5765   10.2131    4.3212 O   0  0
    0.5336   -1.0393   -2.3266 O   0  0
    0.5527   -2.0645    0.2401 O   0  0
   -2.5008   -2.4050    1.7096 O   0  0
   -1.4535    4.1108    4.3918 H   0  0
   -0.5201    2.1894    3.1679 H   0  0
    0.4992    6.8040    1.6481 H   0  0
   -1.9520    6.5145    4.4650 H   0  0
    0.2523    8.2496    3.1710 H   0  0
   -2.1293   12.5024    7.6152 H   0  0
   -0.8853   13.6246    6.9950 H   0  0
   -2.2458   14.1320    5.1810 H   0  0
   -3.4909   13.0101    5.7999 H   0  0
    1.7133    0.4077   -0.5344 H   0  0
   -1.0717    0.0853   -1.7604 H   0  0
   -1.3111   -2.0456   -0.5994 H   0  0
   -2.0956   -0.0245    0.6617 H   0  0
   -0.8235    1.9809    0.2358 H   0  0
    0.9367   -1.5649   -5.1025 H   0  0
    0.0950   -3.1145   -4.7538 H   0  0
    1.5298   -2.6421   -3.8217 H   0  0
    2.4580   -4.1275   -0.2454 H   0  0
    1.4992   -5.0571    0.9578 H   0  0
    2.1510   -3.4584    1.3704 H   0  0
   -4.9396   -3.8315    2.1612 H   0  0
   -3.8582   -5.2226    2.5173 H   0  0
   -3.7258   -4.3537    0.9752 H   0  0
    3.5078    5.2104   -0.5108 H   0  0
    3.3665    4.1294    0.9103 H   0  0
    3.1706    5.8915    1.1021 H   0  0
   -1.9706   -0.8703    2.9653 H   0  0
   -0.6552   -1.9806    2.5012 H   0  0
  1  2  2  0
  1  4  1  0
  2  5  1  0
  3  4  2  0
  3  6  1  0
  4  9  1  0
  5  6  2  0
  5 38  1  0
  6 39  1  0
  7 15  1  0
  7 30  1  0
  7 31  2  0
  8 16  1  0
  8 30  1  0
  8 32  2  0
  9 10  2  0
 10 11  1  0
 11 33  2  0
 11 40  1  0
 12 22  1  0
 12 34  2  0
 12 41  1  0
 13 23  1  0
 13 35  2  0
 13 42  1  0
 14 24  1  0
 14 36  2  0
 14 43  1  0
 15 16  1  0
 17 18  1  0
 17 21  1  0
 17 28  1  0
 18 19  1  0
 18 41  1  0
 19 20  1  0
 19 42  1  0
 20 26  1  0
 20 37  1  0
 21 37  1  0
 21 38  1  0
 25 39  1  0
 26 43  1  0
 27 29  2  0
 28 29  2  0
 30 40  1  0
  1 44  1  0
  2 45  1  0
  3 46  1  0
  9 47  1  0
 10 48  1  0
 15 49  1  0
 15 50  1  0
 16 51  1  0
 16 52  1  0
 17 53  1  0
 18 54  1  0
 19 55  1  0
 20 56  1  0
 21 57  1  0
 22 58  1  0
 22 59  1  0
 22 60  1  0
 23 61  1  0
 23 62  1  0
 23 63  1  0
 24 64  1  0
 24 65  1  0
 24 66  1  0
 25 67  1  0
 25 68  1  0
 25 69  1  0
 26 70  1  0
 26 71  1  0
M  CHG  2  27  -1  29   1
M  END
> <Name>
BR010399

$$$$
BR010400
  SciTegic05062102053D

 71 73  0  0  1  0            999 V2000
   -0.8863    4.4960    3.2923 C   0  0
   -0.4848    3.8125    2.1446 C   0  0
    0.9689    3.5409    4.5101 C   0  0
   -0.1593    4.3602    4.4751 C   0  0
    0.6435    2.9931    2.1796 C   0  0
    1.3704    2.8573    3.3624 C   0  0
    0.5700    0.6442    8.3903 C   0  0
   -1.6757    0.6662    8.9430 C   0  0
   -0.5766    5.0752    5.6709 C   0  0
   -0.9256    4.4999    6.8432 C   0  0
   -0.9020    3.0260    6.9861 C   0  0
   -0.2384   -1.5683   -3.3218 C   0  0
    0.4711   -3.4148    0.0644 C   0  0
   -2.4581   -1.3377    4.3265 C   0  0
    0.2224   -0.7924    8.6723 C   0  0
   -1.2635   -0.7779    9.0378 C   0  0
    0.7079    0.7838   -0.7561 C   0  0  2  0  0  0
   -0.1711   -0.3429   -1.3028 C   0  0  2  0  0  0
   -0.5847   -1.3172   -0.1966 C   0  0  2  0  0  0
   -1.1887   -0.5460    0.9818 C   0  0  1  0  0  0
    0.0814    1.4146    0.4920 C   0  0  1  0  0  0
    0.6325   -2.2665   -4.3219 C   0  0
    1.7265   -4.0633    0.5639 C   0  0
   -3.0060   -0.3773    5.3382 C   0  0
    3.1606    1.9742    4.6551 C   0  0
   -1.5451   -1.4570    2.1503 C   0  0
    3.0409    2.2752   -2.5530 N   0  5
    0.8301    1.8236   -1.7903 N   0  0
    1.9847    2.0541   -2.1833 N   0  3
   -0.5829    1.3518    8.5169 N   0  0
    1.6845    1.0489    8.0975 O   0  0
   -2.7911    1.0927    9.1988 O   0  0
   -1.0988    2.2256    6.0851 O   0  0
   -1.4569   -1.4962   -3.4064 O   0  0
   -0.4693   -4.0272   -0.4231 O   0  0
   -2.3668   -2.5445    4.5066 O   0  0
   -0.2426    0.4167    1.4612 O   0  0
    1.0265    2.3281    1.0470 O   0  0
    2.4734    2.0590    3.4083 O   0  0
   -0.6251    2.7449    8.2885 O   0  0
    0.5336   -1.0393   -2.3266 O   0  0
    0.5527   -2.0645    0.2401 O   0  0
   -2.0837   -0.6648    3.1936 O   0  0
   -1.7672    5.1319    3.2494 H   0  0
   -1.0557    3.9224    1.2265 H   0  0
    1.5419    3.4296    5.4281 H   0  0
   -0.6225    6.1672    5.5887 H   0  0
   -1.2198    5.0883    7.7054 H   0  0
    0.4066   -1.4001    7.7815 H   0  0
    0.8312   -1.1656    9.5009 H   0  0
   -1.4250   -1.1435   10.0561 H   0  0
   -1.8512   -1.3780    8.3371 H   0  0
    1.7133    0.4077   -0.5344 H   0  0
   -1.0717    0.0853   -1.7604 H   0  0
   -1.3111   -2.0456   -0.5994 H   0  0
   -2.0956   -0.0245    0.6617 H   0  0
   -0.8235    1.9809    0.2358 H   0  0
    0.9367   -1.5649   -5.1025 H   0  0
    0.0950   -3.1145   -4.7538 H   0  0
    1.5298   -2.6421   -3.8217 H   0  0
    2.4580   -4.1275   -0.2454 H   0  0
    1.4992   -5.0571    0.9578 H   0  0
    2.1510   -3.4584    1.3704 H   0  0
   -2.1986   -0.0104    5.9766 H   0  0
   -3.7774   -0.8688    5.9365 H   0  0
   -3.4571    0.4751    4.8220 H   0  0
    4.0195    1.3063    4.5540 H   0  0
    2.4800    1.5964    5.4223 H   0  0
    3.5082    2.9707    4.9379 H   0  0
   -0.6520   -1.9680    2.5117 H   0  0
   -2.2873   -2.1926    1.8380 H   0  0
  1  2  2  0
  1  4  1  0
  2  5  1  0
  3  4  2  0
  3  6  1  0
  4  9  1  0
  5  6  2  0
  5 38  1  0
  6 39  1  0
  7 15  1  0
  7 30  1  0
  7 31  2  0
  8 16  1  0
  8 30  1  0
  8 32  2  0
  9 10  2  0
 10 11  1  0
 11 33  2  0
 11 40  1  0
 12 22  1  0
 12 34  2  0
 12 41  1  0
 13 23  1  0
 13 35  2  0
 13 42  1  0
 14 24  1  0
 14 36  2  0
 14 43  1  0
 15 16  1  0
 17 18  1  0
 17 21  1  0
 17 28  1  0
 18 19  1  0
 18 41  1  0
 19 20  1  0
 19 42  1  0
 20 26  1  0
 20 37  1  0
 21 37  1  0
 21 38  1  0
 25 39  1  0
 26 43  1  0
 27 29  2  0
 28 29  2  0
 30 40  1  0
  1 44  1  0
  2 45  1  0
  3 46  1  0
  9 47  1  0
 10 48  1  0
 15 49  1  0
 15 50  1  0
 16 51  1  0
 16 52  1  0
 17 53  1  0
 18 54  1  0
 19 55  1  0
 20 56  1  0
 21 57  1  0
 22 58  1  0
 22 59  1  0
 22 60  1  0
 23 61  1  0
 23 62  1  0
 23 63  1  0
 24 64  1  0
 24 65  1  0
 24 66  1  0
 25 67  1  0
 25 68  1  0
 25 69  1  0
 26 70  1  0
 26 71  1  0
M  CHG  2  27  -1  29   1
M  END
> <Name>
BR010400

$$$$
BR010401
  SciTegic05062102053D

 55 56  0  0  1  0            999 V2000
    4.4904   -3.9487   -6.0787 C   0  0
    3.4683   -3.0150   -5.9086 C   0  0
    4.7807   -4.0674   -3.6832 C   0  0
    5.1466   -4.4750   -4.9660 C   0  0
    3.1024   -2.6074   -4.6258 C   0  0
    3.7586   -3.1337   -3.5130 C   0  0
    6.8107   -7.9479   -5.3184 C   0  0
   -1.3318   -1.0646   -5.8431 C   0  0  1  0  0  0
   -0.8604   -0.1898   -7.0052 C   0  0  2  0  0  0
   -0.2251   -1.2399   -4.8037 C   0  0  2  0  0  0
    0.4541   -0.7407   -7.5687 C   0  0  1  0  0  0
    1.0775   -1.6890   -5.4697 C   0  0  1  0  0  0
    2.3936   -3.4979   -1.5999 C   0  0
    6.2378   -5.4752   -5.1477 C   0  0
    5.7099   -6.9148   -5.1564 C   0  0
    1.0286    0.1206   -8.6869 C   0  0
    7.1470  -10.4027   -5.4618 C   0  0
    7.2966  -10.7502   -6.9317 C   0  0
    6.3033   -9.2391   -5.3226 N   0  0
    7.9984   -7.6559   -5.4291 O   0  0
    1.4399   -0.8063   -6.5305 O   0  0
   -2.4817   -0.4746   -5.2431 O   0  0
   -0.6656    1.1415   -6.5228 O   0  0
   -0.6429   -2.2310   -3.8654 O   0  0
    1.9457   -0.6594   -9.4331 O   0  0
    6.0200  -11.0599   -7.4760 O   0  0
    2.0984   -1.6910   -4.4725 O   0  0
    3.4106   -2.7427   -2.2553 O   0  0
    4.7677   -4.2617   -7.0818 H   0  0
    2.9616   -2.6088   -6.7797 H   0  0
    5.2903   -4.4765   -2.8141 H   0  0
   -1.6408   -2.0459   -6.2249 H   0  0
   -1.6388   -0.1447   -7.7755 H   0  0
   -0.0799   -0.3092   -4.2416 H   0  0
    0.2944   -1.7528   -7.9627 H   0  0
    0.9878   -2.7145   -5.8500 H   0  0
    2.2126   -3.0812   -0.6061 H   0  0
    2.7092   -4.5410   -1.5174 H   0  0
    1.4748   -3.4428   -2.1885 H   0  0
    6.7847   -5.2771   -6.0848 H   0  0
    6.9936   -5.3641   -4.3520 H   0  0
    4.9941   -7.0466   -5.9774 H   0  0
    5.1789   -7.1249   -4.2195 H   0  0
    1.5488    0.9816   -8.2657 H   0  0
    0.2284    0.4616   -9.3448 H   0  0
    6.6902  -11.2262   -4.9038 H   0  0
    8.1226  -10.1711   -5.0240 H   0  0
    7.9351  -11.6318   -7.0452 H   0  0
    7.7295   -9.9203   -7.4995 H   0  0
    5.3071   -9.3853   -5.1878 H   0  0
   -3.1591   -0.4232   -5.9353 H   0  0
   -0.3688    1.6651   -7.2816 H   0  0
   -0.7862   -3.0448   -4.3718 H   0  0
    2.2972   -0.0894  -10.1380 H   0  0
    6.1600  -11.2752   -8.4121 H   0  0
  1  2  2  0
  1  4  1  0
  2  5  1  0
  3  4  2  0
  3  6  1  0
  4 14  1  0
  5  6  2  0
  5 27  1  0
  6 28  1  0
  7 15  1  0
  7 19  1  0
  7 20  2  0
  8  9  1  0
  8 10  1  0
  8 22  1  0
  9 11  1  0
  9 23  1  0
 10 12  1  0
 10 24  1  0
 11 16  1  0
 11 21  1  0
 12 21  1  0
 12 27  1  0
 13 28  1  0
 14 15  1  0
 16 25  1  0
 17 18  1  0
 17 19  1  0
 18 26  1  0
  1 29  1  0
  2 30  1  0
  3 31  1  0
  8 32  1  0
  9 33  1  0
 10 34  1  0
 11 35  1  0
 12 36  1  0
 13 37  1  0
 13 38  1  0
 13 39  1  0
 14 40  1  0
 14 41  1  0
 15 42  1  0
 15 43  1  0
 16 44  1  0
 16 45  1  0
 17 46  1  0
 17 47  1  0
 18 48  1  0
 18 49  1  0
 19 50  1  0
 22 51  1  0
 23 52  1  0
 24 53  1  0
 25 54  1  0
 26 55  1  0
M  END
> <Name>
BR010401

$$$$
BR010402
  SciTegic05062102053D

 57 58  0  0  1  0            999 V2000
   -1.0225   -1.0848    4.7914 C   0  0
   -0.8196   -1.4237    3.4537 C   0  0
   -3.3791   -0.7781    4.3565 C   0  0
   -2.3022   -0.7620    5.2429 C   0  0
   -1.8965   -1.4398    2.5673 C   0  0
   -3.1763   -1.1170    3.0187 C   0  0
   -3.0835   -1.2766    8.9951 C   0  0
   -0.9612   -3.4789   -0.2663 C   0  0  2  0  0  0
    0.2087   -4.3619   -0.7050 C   0  0  2  0  0  0
    1.4964   -3.5376   -0.7906 C   0  0  2  0  0  0
    1.7244   -2.7864    0.5255 C   0  0  1  0  0  0
   -0.6151   -2.6804    0.9942 C   0  0  1  0  0  0
   -4.9502   -2.3558    2.0316 C   0  0
   -2.5196   -0.4022    6.6737 C   0  0
   -2.8374   -1.6277    7.5386 C   0  0
    2.9582   -1.8924    0.4921 C   0  0
   -3.6420   -2.3380   11.1679 C   0  0
   -2.3457   -2.4805   11.9443 C   0  0
   -3.3681   -2.4041    9.7516 N   0  0
   -2.1349   -4.3529    0.0266 N   0  3
   -3.0334   -0.1291    9.4297 O   0  0
    0.5975   -1.9477    0.8079 O   0  0
   -0.0801   -4.9494   -1.9697 O   0  0
    1.3704   -2.6090   -1.8696 O   0  0
    3.3465   -1.6077    1.8242 O   0  0
   -1.7637   -3.7471   11.6634 O   0  0
   -1.6841   -1.7739    1.2574 O   0  0
   -4.2356   -1.1284    2.1622 O   0  0
   -0.1779   -1.0766    5.4752 H   0  0
    0.1799   -1.6737    3.1087 H   0  0
   -4.3778   -0.5274    4.7059 H   0  0
   -1.2875   -2.8208   -1.0802 H   0  0
    0.3507   -5.1777    0.0156 H   0  0
    2.3417   -4.1947   -1.0258 H   0  0
    1.8421   -3.5036    1.3480 H   0  0
   -0.5058   -3.3402    1.8645 H   0  0
   -5.7690   -2.2275    1.3194 H   0  0
   -5.3443   -2.6545    3.0062 H   0  0
   -4.2685   -3.1267    1.6646 H   0  0
   -1.6317    0.1135    7.0764 H   0  0
   -3.3365    0.3338    6.7621 H   0  0
   -2.0064   -2.3428    7.4952 H   0  0
   -3.7302   -2.1366    7.1539 H   0  0
    2.7291   -0.9587   -0.0227 H   0  0
    3.7754   -2.4021   -0.0193 H   0  0
   -4.3450   -3.1387   11.4190 H   0  0
   -4.1090   -1.3716   11.3804 H   0  0
   -2.5453   -2.4313   13.0193 H   0  0
   -1.6289   -1.6968   11.6782 H   0  0
   -3.4238   -3.3107    9.2966 H   0  0
   -2.9971   -3.9198   -0.3115 H   0  0
   -2.2236   -4.5067    1.0337 H   0  0
   -2.0280   -5.2610   -0.4311 H   0  0
    0.6865   -5.4962   -2.2030 H   0  0
    2.1983   -2.1068   -1.8947 H   0  0
    4.1329   -1.0379    1.7762 H   0  0
   -0.9415   -3.7970   12.1770 H   0  0
  1  2  2  0
  1  4  1  0
  2  5  1  0
  3  4  2  0
  3  6  1  0
  4 14  1  0
  5  6  2  0
  5 27  1  0
  6 28  1  0
  7 15  1  0
  7 19  1  0
  7 21  2  0
  8  9  1  0
  8 12  1  0
  8 20  1  0
  9 10  1  0
  9 23  1  0
 10 11  1  0
 10 24  1  0
 11 16  1  0
 11 22  1  0
 12 22  1  0
 12 27  1  0
 13 28  1  0
 14 15  1  0
 16 25  1  0
 17 18  1  0
 17 19  1  0
 18 26  1  0
  1 29  1  0
  2 30  1  0
  3 31  1  0
  8 32  1  0
  9 33  1  0
 10 34  1  0
 11 35  1  0
 12 36  1  0
 13 37  1  0
 13 38  1  0
 13 39  1  0
 14 40  1  0
 14 41  1  0
 15 42  1  0
 15 43  1  0
 16 44  1  0
 16 45  1  0
 17 46  1  0
 17 47  1  0
 18 48  1  0
 18 49  1  0
 19 50  1  0
 20 51  1  0
 20 52  1  0
 20 53  1  0
 23 54  1  0
 24 55  1  0
 25 56  1  0
 26 57  1  0
M  CHG  1  20   1
M  END
> <Name>
BR010402

$$$$
BR010403
  SciTegic05062102053D

 49 50  0  0  1  0            999 V2000
   -5.8227    0.3505    2.9323 C   0  0
   -5.8127    0.7772    4.2602 C   0  0
   -4.6277    0.2658    2.2179 C   0  0
   -3.4125    1.0348    4.1593 C   0  0
   -4.6076    1.1195    4.8737 C   0  0
   -3.4226    0.6080    2.8313 C   0  0
    0.5585    1.1750    0.3874 C   0  0
   -0.6157   -2.2720    0.3126 C   0  0
   -0.7213   -0.9175    0.9861 C   0  0  2  0  0  0
    0.1378   -0.7189   -1.2321 C   0  0
    1.5899   -1.0343   -1.5983 C   0  0
   -0.5536    0.0641   -2.3466 C   0  0
    0.2091    3.8850    1.2333 C   0  0
    0.4335    2.9906    3.5698 C   0  0
    2.3472    2.7723    1.9579 C   0  0
   -2.1730   -0.4586    1.1118 C   0  0
    0.8267    2.7943    2.1072 C   0  0
    0.0232   -0.0670    0.0714 N   0  0
   -4.5974    1.5534    6.2258 N   0  3
   -5.6834    1.6218    6.8505 O   0  5
    1.1861    1.8843   -0.3953 O   0  0
   -3.5026    1.8561    6.7587 O   0  0
   -0.5687   -1.9754   -1.0924 O   0  0
   -2.2464    0.5244    2.1273 O   0  0
    0.3090    1.5267    1.6878 O   0  0
   -6.7611    0.0845    2.4544 H   0  0
   -6.7514    0.8386    4.8059 H   0  0
   -4.6417   -0.0676    1.1838 H   0  0
   -2.4692    1.3009    4.6310 H   0  0
    0.3183   -2.7789    0.5811 H   0  0
   -1.4514   -2.9443    0.5259 H   0  0
   -0.2573   -0.9241    1.9779 H   0  0
    2.0585   -1.5911   -0.7899 H   0  0
    2.1361   -0.1077   -1.7598 H   0  0
    1.6168   -1.6304   -2.5077 H   0  0
   -1.5833    0.2765   -2.0641 H   0  0
   -0.5489   -0.5199   -3.2654 H   0  0
   -0.0295    1.0029   -2.5177 H   0  0
    0.4889    3.7476    0.1827 H   0  0
   -0.8835    3.8885    1.3046 H   0  0
    0.5780    4.8751    1.5246 H   0  0
    0.8744    2.2102    4.2005 H   0  0
   -0.6524    2.9124    3.6959 H   0  0
    0.7571    3.9658    3.9477 H   0  0
    2.7904    1.9900    2.5846 H   0  0
    2.6480    2.5955    0.9201 H   0  0
    2.7851    3.7203    2.2907 H   0  0
   -2.8062   -1.3035    1.3798 H   0  0
   -2.5087   -0.0298    0.1684 H   0  0
  1  2  1  0
  1  3  2  0
  2  5  2  0
  3  6  1  0
  4  5  1  0
  4  6  2  0
  5 19  1  0
  6 24  1  0
  7 18  1  0
  7 21  2  0
  7 25  1  0
  8  9  1  0
  8 23  1  0
  9 16  1  0
  9 18  1  0
 10 11  1  0
 10 12  1  0
 10 18  1  0
 10 23  1  0
 13 17  1  0
 14 17  1  0
 15 17  1  0
 16 24  1  0
 17 25  1  0
 19 20  1  0
 19 22  2  0
  1 26  1  0
  2 27  1  0
  3 28  1  0
  4 29  1  0
  8 30  1  0
  8 31  1  0
  9 32  1  0
 11 33  1  0
 11 34  1  0
 11 35  1  0
 12 36  1  0
 12 37  1  0
 12 38  1  0
 13 39  1  0
 13 40  1  0
 13 41  1  0
 14 42  1  0
 14 43  1  0
 14 44  1  0
 15 45  1  0
 15 46  1  0
 15 47  1  0
 16 48  1  0
 16 49  1  0
M  CHG  2  19   1  20  -1
M  END
> <Name>
BR010403

$$$$
BR010404
  SciTegic05062102053D

 49 50  0  0  1  0            999 V2000
    5.6643   -2.5882    1.9409 C   0  0
    5.5728   -3.6162    2.8791 C   0  0
    4.5074   -1.9605    1.4790 C   0  0
    3.1676   -3.3891    2.8935 C   0  0
    4.3245   -4.0167    3.3554 C   0  0
    3.2591   -2.3609    1.9553 C   0  0
   -0.6427    0.1265    1.1890 C   0  0
    0.7374   -1.2103   -1.9054 C   0  0
    0.7350   -1.2813   -0.3907 C   0  0  1  0  0  0
   -0.0455    0.8390   -1.1610 C   0  0
    0.6421    2.1658   -0.8450 C   0  0
   -1.4603    1.0650   -1.6987 C   0  0
   -2.5828   -0.6279    3.1508 C   0  0
   -0.7660   -2.0608    4.1284 C   0  0
   -0.4781    0.4325    4.0345 C   0  0
    2.1505   -1.2293    0.1815 C   0  0
   -1.0752   -0.7903    3.3394 C   0  0
   -0.0220   -0.0919   -0.0341 N   0  0
    4.2315   -5.0630    4.3110 N   0  3
    5.2845   -5.6139    4.7137 O   0  5
   -1.2798    1.1366    1.4780 O   0  0
    3.0989   -5.4076    4.7267 O   0  0
    0.7286    0.1954   -2.2024 O   0  0
    2.1205   -1.7425    1.5001 O   0  0
   -0.4665   -0.9244    2.0501 O   0  0
    6.6363   -2.2766    1.5696 H   0  0
    6.4826   -4.0971    3.2311 H   0  0
    4.5849   -1.1600    0.7483 H   0  0
    2.1907   -3.6968    3.2598 H   0  0
    1.6027   -1.6869   -2.3744 H   0  0
   -0.1745   -1.6491   -2.3264 H   0  0
    0.2329   -2.1855   -0.0311 H   0  0
    1.6452    1.9802   -0.4648 H   0  0
    0.0704    2.7078   -0.0936 H   0  0
    0.7089    2.7709   -1.7477 H   0  0
   -1.9270    0.1066   -1.9154 H   0  0
   -1.4152    1.6566   -2.6103 H   0  0
   -2.0539    1.5938   -0.9562 H   0  0
   -2.8088    0.2829    2.5849 H   0  0
   -3.0176   -1.4826    2.6223 H   0  0
   -3.0889   -0.5248    4.1175 H   0  0
    0.3146   -2.1814    4.2660 H   0  0
   -1.1093   -2.9498    3.5869 H   0  0
   -1.2420   -2.0501    5.1142 H   0  0
    0.6032    0.3162    4.1698 H   0  0
   -0.6584    1.3490    3.4634 H   0  0
   -0.9036    0.5573    5.0368 H   0  0
    2.5035   -0.1990    0.2024 H   0  0
    2.8186   -1.8366   -0.4279 H   0  0
  1  2  1  0
  1  3  2  0
  2  5  2  0
  3  6  1  0
  4  5  1  0
  4  6  2  0
  5 19  1  0
  6 24  1  0
  7 18  1  0
  7 21  2  0
  7 25  1  0
  8  9  1  0
  8 23  1  0
  9 16  1  0
  9 18  1  0
 10 11  1  0
 10 12  1  0
 10 18  1  0
 10 23  1  0
 13 17  1  0
 14 17  1  0
 15 17  1  0
 16 24  1  0
 17 25  1  0
 19 20  1  0
 19 22  2  0
  1 26  1  0
  2 27  1  0
  3 28  1  0
  4 29  1  0
  8 30  1  0
  8 31  1  0
  9 32  1  0
 11 33  1  0
 11 34  1  0
 11 35  1  0
 12 36  1  0
 12 37  1  0
 12 38  1  0
 13 39  1  0
 13 40  1  0
 13 41  1  0
 14 42  1  0
 14 43  1  0
 14 44  1  0
 15 45  1  0
 15 46  1  0
 15 47  1  0
 16 48  1  0
 16 49  1  0
M  CHG  2  19   1  20  -1
M  END
> <Name>
BR010404

$$$$
BR010405
  SciTegic05062102053D

 49 50  0  0  1  0            999 V2000
   -6.0018    2.1578    2.8746 C   0  0
   -5.4224    2.2715    1.6109 C   0  0
   -5.3223    1.4946    3.8964 C   0  0
   -4.1634    1.7219    1.3690 C   0  0
   -4.0633    0.9450    3.6544 C   0  0
   -3.4838    1.0586    2.3907 C   0  0
    0.5585    1.1750    0.3874 C   0  0
   -0.6157   -2.2720    0.3126 C   0  0
   -0.7213   -0.9175    0.9861 C   0  0  2  0  0  0
    0.1378   -0.7189   -1.2321 C   0  0
    1.5899   -1.0343   -1.5983 C   0  0
   -0.5536    0.0641   -2.3466 C   0  0
    0.2091    3.8850    1.2333 C   0  0
    0.4335    2.9906    3.5698 C   0  0
    2.3472    2.7723    1.9579 C   0  0
   -2.1730   -0.4586    1.1118 C   0  0
    0.8267    2.7943    2.1072 C   0  0
    0.0232   -0.0670    0.0714 N   0  0
   -3.3847    0.2724    4.7077 N   0  3
   -3.5656   -0.9595    4.8556 O   0  5
    1.1861    1.8843   -0.3953 O   0  0
   -2.6254    0.9310    5.4570 O   0  0
   -0.5687   -1.9754   -1.0924 O   0  0
   -2.2464    0.5244    2.1273 O   0  0
    0.3090    1.5267    1.6878 O   0  0
   -6.9823    2.5856    3.0630 H   0  0
   -5.9514    2.7881    0.8153 H   0  0
   -5.7862    1.4138    4.8766 H   0  0
   -3.7176    1.8143    0.3819 H   0  0
    0.3183   -2.7789    0.5811 H   0  0
   -1.4514   -2.9443    0.5259 H   0  0
   -0.2573   -0.9241    1.9779 H   0  0
    2.0585   -1.5911   -0.7899 H   0  0
    2.1361   -0.1077   -1.7598 H   0  0
    1.6168   -1.6304   -2.5077 H   0  0
   -1.5833    0.2765   -2.0641 H   0  0
   -0.5489   -0.5199   -3.2654 H   0  0
   -0.0295    1.0029   -2.5177 H   0  0
    0.4889    3.7476    0.1827 H   0  0
   -0.8835    3.8885    1.3046 H   0  0
    0.5780    4.8751    1.5246 H   0  0
    0.8744    2.2102    4.2005 H   0  0
   -0.6524    2.9124    3.6959 H   0  0
    0.7571    3.9658    3.9477 H   0  0
    2.7904    1.9900    2.5846 H   0  0
    2.6480    2.5955    0.9201 H   0  0
    2.7851    3.7203    2.2907 H   0  0
   -2.8062   -1.3035    1.3798 H   0  0
   -2.5087   -0.0298    0.1684 H   0  0
  1  2  2  0
  1  3  1  0
  2  4  1  0
  3  5  2  0
  4  6  2  0
  5  6  1  0
  5 19  1  0
  6 24  1  0
  7 18  1  0
  7 21  2  0
  7 25  1  0
  8  9  1  0
  8 23  1  0
  9 16  1  0
  9 18  1  0
 10 11  1  0
 10 12  1  0
 10 18  1  0
 10 23  1  0
 13 17  1  0
 14 17  1  0
 15 17  1  0
 16 24  1  0
 17 25  1  0
 19 20  1  0
 19 22  2  0
  1 26  1  0
  2 27  1  0
  3 28  1  0
  4 29  1  0
  8 30  1  0
  8 31  1  0
  9 32  1  0
 11 33  1  0
 11 34  1  0
 11 35  1  0
 12 36  1  0
 12 37  1  0
 12 38  1  0
 13 39  1  0
 13 40  1  0
 13 41  1  0
 14 42  1  0
 14 43  1  0
 14 44  1  0
 15 45  1  0
 15 46  1  0
 15 47  1  0
 16 48  1  0
 16 49  1  0
M  CHG  2  19   1  20  -1
M  END
> <Name>
BR010405

$$$$
BR010406
  SciTegic05062102053D

 49 50  0  0  1  0            999 V2000
   -5.8226    0.3507    2.9334 C   0  0
   -4.6065    1.1198    4.8742 C   0  0
   -4.6280    0.2659    2.2184 C   0  0
   -3.4118    1.0349    4.1592 C   0  0
   -5.8119    0.7777    4.2613 C   0  0
   -3.4226    0.6080    2.8313 C   0  0
    0.5585    1.1750    0.3874 C   0  0
   -0.6157   -2.2720    0.3126 C   0  0
   -0.7213   -0.9175    0.9861 C   0  0  2  0  0  0
    0.1378   -0.7189   -1.2321 C   0  0
    1.5899   -1.0343   -1.5983 C   0  0
   -0.5536    0.0641   -2.3466 C   0  0
    0.2091    3.8850    1.2333 C   0  0
    0.4335    2.9906    3.5698 C   0  0
    2.3472    2.7723    1.9579 C   0  0
   -2.1730   -0.4586    1.1118 C   0  0
    0.8267    2.7943    2.1072 C   0  0
    0.0232   -0.0670    0.0714 N   0  0
   -7.0279    0.8644    4.9894 N   0  3
   -8.1014    0.5522    4.4195 O   0  5
    1.1861    1.8843   -0.3953 O   0  0
   -6.9957    1.2505    6.1828 O   0  0
   -0.5687   -1.9754   -1.0924 O   0  0
   -2.2464    0.5244    2.1273 O   0  0
    0.3090    1.5267    1.6878 O   0  0
   -6.7552    0.0808    2.4439 H   0  0
   -4.5837    1.4546    5.9084 H   0  0
   -4.6427   -0.0677    1.1844 H   0  0
   -2.4760    1.3032    4.6420 H   0  0
    0.3183   -2.7789    0.5811 H   0  0
   -1.4514   -2.9443    0.5259 H   0  0
   -0.2573   -0.9241    1.9779 H   0  0
    2.0585   -1.5911   -0.7899 H   0  0
    2.1361   -0.1077   -1.7598 H   0  0
    1.6168   -1.6304   -2.5077 H   0  0
   -1.5833    0.2765   -2.0641 H   0  0
   -0.5489   -0.5199   -3.2654 H   0  0
   -0.0295    1.0029   -2.5177 H   0  0
    0.4889    3.7476    0.1827 H   0  0
   -0.8835    3.8885    1.3046 H   0  0
    0.5780    4.8751    1.5246 H   0  0
    0.8744    2.2102    4.2005 H   0  0
   -0.6524    2.9124    3.6959 H   0  0
    0.7571    3.9658    3.9477 H   0  0
    2.7904    1.9900    2.5846 H   0  0
    2.6480    2.5955    0.9201 H   0  0
    2.7851    3.7203    2.2907 H   0  0
   -2.8062   -1.3035    1.3798 H   0  0
   -2.5087   -0.0298    0.1684 H   0  0
  1  3  1  0
  1  5  2  0
  2  4  2  0
  2  5  1  0
  3  6  2  0
  4  6  1  0
  5 19  1  0
  6 24  1  0
  7 18  1  0
  7 21  2  0
  7 25  1  0
  8  9  1  0
  8 23  1  0
  9 16  1  0
  9 18  1  0
 10 11  1  0
 10 12  1  0
 10 18  1  0
 10 23  1  0
 13 17  1  0
 14 17  1  0
 15 17  1  0
 16 24  1  0
 17 25  1  0
 19 20  1  0
 19 22  2  0
  1 26  1  0
  2 27  1  0
  3 28  1  0
  4 29  1  0
  8 30  1  0
  8 31  1  0
  9 32  1  0
 11 33  1  0
 11 34  1  0
 11 35  1  0
 12 36  1  0
 12 37  1  0
 12 38  1  0
 13 39  1  0
 13 40  1  0
 13 41  1  0
 14 42  1  0
 14 43  1  0
 14 44  1  0
 15 45  1  0
 15 46  1  0
 15 47  1  0
 16 48  1  0
 16 49  1  0
M  CHG  2  19   1  20  -1
M  END
> <Name>
BR010406

$$$$
BR010407
  SciTegic05062102053D

 47 48  0  0  1  0            999 V2000
   -5.8110    0.7750    4.2633 C   0  0
   -5.8225    0.3496    2.9350 C   0  0
   -4.6052    1.1170    4.8757 C   0  0
   -4.6284    0.2660    2.2190 C   0  0
   -3.4111    1.0334    4.1597 C   0  0
   -3.4226    0.6080    2.8313 C   0  0
    0.5585    1.1750    0.3874 C   0  0
   -0.6157   -2.2720    0.3126 C   0  0
   -0.7213   -0.9175    0.9861 C   0  0  2  0  0  0
    0.1378   -0.7189   -1.2321 C   0  0
    1.5899   -1.0343   -1.5983 C   0  0
   -0.5536    0.0641   -2.3466 C   0  0
    0.2091    3.8850    1.2333 C   0  0
    0.4335    2.9906    3.5698 C   0  0
    2.3472    2.7723    1.9579 C   0  0
   -2.1730   -0.4586    1.1118 C   0  0
    0.8267    2.7943    2.1072 C   0  0
    0.0232   -0.0670    0.0714 N   0  0
    1.1861    1.8843   -0.3953 O   0  0
   -0.5687   -1.9754   -1.0924 O   0  0
   -2.2464    0.5244    2.1273 O   0  0
    0.3090    1.5267    1.6878 O   0  0
   -6.7406    0.8407    4.8209 H   0  0
   -6.7613    0.0831    2.4580 H   0  0
   -4.5970    1.4483    5.9101 H   0  0
   -4.6440   -0.0675    1.1850 H   0  0
   -2.4746    1.2994    4.6424 H   0  0
    0.3183   -2.7789    0.5811 H   0  0
   -1.4514   -2.9443    0.5259 H   0  0
   -0.2573   -0.9241    1.9779 H   0  0
    2.0585   -1.5911   -0.7899 H   0  0
    2.1361   -0.1077   -1.7598 H   0  0
    1.6168   -1.6304   -2.5077 H   0  0
   -1.5833    0.2765   -2.0641 H   0  0
   -0.5489   -0.5199   -3.2654 H   0  0
   -0.0295    1.0029   -2.5177 H   0  0
    0.4889    3.7476    0.1827 H   0  0
   -0.8835    3.8885    1.3046 H   0  0
    0.5780    4.8751    1.5246 H   0  0
    0.8744    2.2102    4.2005 H   0  0
   -0.6524    2.9124    3.6959 H   0  0
    0.7571    3.9658    3.9477 H   0  0
    2.7904    1.9900    2.5846 H   0  0
    2.6480    2.5955    0.9201 H   0  0
    2.7851    3.7203    2.2907 H   0  0
   -2.8062   -1.3035    1.3798 H   0  0
   -2.5087   -0.0298    0.1684 H   0  0
  1  2  2  0
  1  3  1  0
  2  4  1  0
  3  5  2  0
  4  6  2  0
  5  6  1  0
  6 21  1  0
  7 18  1  0
  7 19  2  0
  7 22  1  0
  8  9  1  0
  8 20  1  0
  9 16  1  0
  9 18  1  0
 10 11  1  0
 10 12  1  0
 10 18  1  0
 10 20  1  0
 13 17  1  0
 14 17  1  0
 15 17  1  0
 16 21  1  0
 17 22  1  0
  1 23  1  0
  2 24  1  0
  3 25  1  0
  4 26  1  0
  5 27  1  0
  8 28  1  0
  8 29  1  0
  9 30  1  0
 11 31  1  0
 11 32  1  0
 11 33  1  0
 12 34  1  0
 12 35  1  0
 12 36  1  0
 13 37  1  0
 13 38  1  0
 13 39  1  0
 14 40  1  0
 14 41  1  0
 14 42  1  0
 15 43  1  0
 15 44  1  0
 15 45  1  0
 16 46  1  0
 16 47  1  0
M  END
> <Name>
BR010407

$$$$
BR010408
  SciTegic05062102053D

 53 54  0  0  1  0            999 V2000
   -5.9205    2.5551    2.3441 C   0  0
   -5.4797    2.2547    1.0553 C   0  0
   -5.1108    2.2673    3.4430 C   0  0
   -4.2293    1.6664    0.8653 C   0  0
   -3.8605    1.6790    3.2530 C   0  0
   -3.4196    1.3786    1.9641 C   0  0
   -3.0312    1.3869    4.4138 C   0  0
    0.5585    1.1750    0.3874 C   0  0
   -0.6157   -2.2720    0.3126 C   0  0
   -0.7213   -0.9175    0.9861 C   0  0  2  0  0  0
    0.1378   -0.7189   -1.2321 C   0  0
    1.5899   -1.0343   -1.5983 C   0  0
   -0.5536    0.0641   -2.3466 C   0  0
    0.2091    3.8850    1.2333 C   0  0
    0.4335    2.9906    3.5698 C   0  0
    2.3472    2.7723    1.9579 C   0  0
   -2.5020    2.0897    6.6298 C   0  0
   -2.1730   -0.4586    1.1118 C   0  0
    0.8267    2.7943    2.1072 C   0  0
    0.0232   -0.0670    0.0714 N   0  0
   -2.2190    0.4557    4.4753 O   0  0
    1.1861    1.8843   -0.3953 O   0  0
   -0.5687   -1.9754   -1.0924 O   0  0
   -2.1910    0.8012    1.7564 O   0  0
   -3.2613    2.2726    5.4299 O   0  0
    0.3090    1.5267    1.6878 O   0  0
   -6.8943    3.0132    2.4918 H   0  0
   -6.1107    2.4785    0.2003 H   0  0
   -5.4645    2.5062    4.4427 H   0  0
   -3.8918    1.4351   -0.1413 H   0  0
    0.3183   -2.7789    0.5811 H   0  0
   -1.4514   -2.9443    0.5259 H   0  0
   -0.2573   -0.9241    1.9779 H   0  0
    2.0585   -1.5911   -0.7899 H   0  0
    2.1361   -0.1077   -1.7598 H   0  0
    1.6168   -1.6304   -2.5077 H   0  0
   -1.5833    0.2765   -2.0641 H   0  0
   -0.5489   -0.5199   -3.2654 H   0  0
   -0.0295    1.0029   -2.5177 H   0  0
    0.4889    3.7476    0.1827 H   0  0
   -0.8835    3.8885    1.3046 H   0  0
    0.5780    4.8751    1.5246 H   0  0
    0.8744    2.2102    4.2005 H   0  0
   -0.6524    2.9124    3.6959 H   0  0
    0.7571    3.9658    3.9477 H   0  0
    2.7904    1.9900    2.5846 H   0  0
    2.6480    2.5955    0.9201 H   0  0
    2.7851    3.7203    2.2907 H   0  0
   -2.7784    2.8569    7.3573 H   0  0
   -1.4354    2.1568    6.4010 H   0  0
   -2.7226    1.1027    7.0431 H   0  0
   -2.7379   -1.1766    1.7052 H   0  0
   -2.6187   -0.3651    0.1223 H   0  0
  1  2  2  0
  1  3  1  0
  2  4  1  0
  3  5  2  0
  4  6  2  0
  5  6  1  0
  5  7  1  0
  6 24  1  0
  7 21  2  0
  7 25  1  0
  8 20  1  0
  8 22  2  0
  8 26  1  0
  9 10  1  0
  9 23  1  0
 10 18  1  0
 10 20  1  0
 11 12  1  0
 11 13  1  0
 11 20  1  0
 11 23  1  0
 14 19  1  0
 15 19  1  0
 16 19  1  0
 17 25  1  0
 18 24  1  0
 19 26  1  0
  1 27  1  0
  2 28  1  0
  3 29  1  0
  4 30  1  0
  9 31  1  0
  9 32  1  0
 10 33  1  0
 12 34  1  0
 12 35  1  0
 12 36  1  0
 13 37  1  0
 13 38  1  0
 13 39  1  0
 14 40  1  0
 14 41  1  0
 14 42  1  0
 15 43  1  0
 15 44  1  0
 15 45  1  0
 16 46  1  0
 16 47  1  0
 16 48  1  0
 17 49  1  0
 17 50  1  0
 17 51  1  0
 18 52  1  0
 18 53  1  0
M  END
> <Name>
BR010408

$$$$
BR010409
  SciTegic05062102053D

 53 54  0  0  1  0            999 V2000
   -5.8227    0.3510    2.9341 C   0  0
   -5.8116    0.7778    4.2619 C   0  0
   -4.6282    0.2660    2.2188 C   0  0
   -3.4115    1.0349    4.1592 C   0  0
   -4.6060    1.1198    4.8745 C   0  0
   -3.4226    0.6080    2.8313 C   0  0
   -4.5939    1.5647    6.2592 C   0  0
    0.5585    1.1750    0.3874 C   0  0
   -0.6157   -2.2720    0.3126 C   0  0
   -0.7213   -0.9175    0.9861 C   0  0  2  0  0  0
    0.1378   -0.7189   -1.2321 C   0  0
    1.5899   -1.0343   -1.5983 C   0  0
   -0.5536    0.0641   -2.3466 C   0  0
    0.2091    3.8850    1.2333 C   0  0
    0.4335    2.9906    3.5698 C   0  0
    2.3472    2.7723    1.9579 C   0  0
   -3.4483    2.9464    7.8310 C   0  0
   -2.1730   -0.4586    1.1118 C   0  0
    0.8267    2.7943    2.1072 C   0  0
    0.0232   -0.0670    0.0714 N   0  0
   -5.4081    1.2018    7.1184 O   0  0
    1.1861    1.8843   -0.3953 O   0  0
   -0.5687   -1.9754   -1.0924 O   0  0
   -2.2464    0.5244    2.1273 O   0  0
   -3.5671    2.4367    6.4984 O   0  0
    0.3090    1.5267    1.6878 O   0  0
   -6.7614    0.0847    2.4573 H   0  0
   -6.7478    0.8394    4.8105 H   0  0
   -4.6433   -0.0672    1.1847 H   0  0
   -2.4686    1.2997    4.6323 H   0  0
    0.3183   -2.7789    0.5811 H   0  0
   -1.4514   -2.9443    0.5259 H   0  0
   -0.2573   -0.9241    1.9779 H   0  0
    2.0585   -1.5911   -0.7899 H   0  0
    2.1361   -0.1077   -1.7598 H   0  0
    1.6168   -1.6304   -2.5077 H   0  0
   -1.5833    0.2765   -2.0641 H   0  0
   -0.5489   -0.5199   -3.2654 H   0  0
   -0.0295    1.0029   -2.5177 H   0  0
    0.4889    3.7476    0.1827 H   0  0
   -0.8835    3.8885    1.3046 H   0  0
    0.5780    4.8751    1.5246 H   0  0
    0.8744    2.2102    4.2005 H   0  0
   -0.6524    2.9124    3.6959 H   0  0
    0.7571    3.9658    3.9477 H   0  0
    2.7904    1.9900    2.5846 H   0  0
    2.6480    2.5955    0.9201 H   0  0
    2.7851    3.7203    2.2907 H   0  0
   -2.5949    3.6265    7.8871 H   0  0
   -3.3128    2.1162    8.5288 H   0  0
   -4.3614    3.4893    8.0866 H   0  0
   -2.8062   -1.3035    1.3798 H   0  0
   -2.5087   -0.0298    0.1684 H   0  0
  1  2  2  0
  1  3  1  0
  2  5  1  0
  3  6  2  0
  4  5  2  0
  4  6  1  0
  5  7  1  0
  6 24  1  0
  7 21  2  0
  7 25  1  0
  8 20  1  0
  8 22  2  0
  8 26  1  0
  9 10  1  0
  9 23  1  0
 10 18  1  0
 10 20  1  0
 11 12  1  0
 11 13  1  0
 11 20  1  0
 11 23  1  0
 14 19  1  0
 15 19  1  0
 16 19  1  0
 17 25  1  0
 18 24  1  0
 19 26  1  0
  1 27  1  0
  2 28  1  0
  3 29  1  0
  4 30  1  0
  9 31  1  0
  9 32  1  0
 10 33  1  0
 12 34  1  0
 12 35  1  0
 12 36  1  0
 13 37  1  0
 13 38  1  0
 13 39  1  0
 14 40  1  0
 14 41  1  0
 14 42  1  0
 15 43  1  0
 15 44  1  0
 15 45  1  0
 16 46  1  0
 16 47  1  0
 16 48  1  0
 17 49  1  0
 17 50  1  0
 17 51  1  0
 18 52  1  0
 18 53  1  0
M  END
> <Name>
BR010409

$$$$
BR010410
  SciTegic05062102053D

 53 54  0  0  1  0            999 V2000
   -5.8227    0.3512    2.9340 C   0  0
   -4.6060    1.1205    4.8743 C   0  0
   -4.6282    0.2660    2.2188 C   0  0
   -3.4115    1.0352    4.1591 C   0  0
   -5.8116    0.7785    4.2618 C   0  0
   -3.4226    0.6080    2.8313 C   0  0
   -7.0569    0.8672    5.0077 C   0  0
    0.5585    1.1750    0.3874 C   0  0
   -0.6157   -2.2720    0.3126 C   0  0
   -0.7213   -0.9175    0.9861 C   0  0  2  0  0  0
    0.1378   -0.7189   -1.2321 C   0  0
    1.5899   -1.0343   -1.5983 C   0  0
   -0.5536    0.0641   -2.3466 C   0  0
    0.2091    3.8850    1.2333 C   0  0
    0.4335    2.9906    3.5698 C   0  0
    2.3472    2.7723    1.9579 C   0  0
   -8.0007    1.4297    7.1255 C   0  0
   -2.1730   -0.4586    1.1118 C   0  0
    0.8267    2.7943    2.1072 C   0  0
    0.0232   -0.0670    0.0714 N   0  0
   -8.1709    0.5847    4.5469 O   0  0
    1.1861    1.8843   -0.3953 O   0  0
   -0.5687   -1.9754   -1.0924 O   0  0
   -2.2464    0.5244    2.1273 O   0  0
   -6.8467    1.3020    6.2879 O   0  0
    0.3090    1.5267    1.6878 O   0  0
   -6.7560    0.0818    2.4463 H   0  0
   -4.5867    1.4544    5.9086 H   0  0
   -4.6434   -0.0674    1.1847 H   0  0
   -2.4755    1.3033    4.6415 H   0  0
    0.3183   -2.7789    0.5811 H   0  0
   -1.4514   -2.9443    0.5259 H   0  0
   -0.2573   -0.9241    1.9779 H   0  0
    2.0585   -1.5911   -0.7899 H   0  0
    2.1361   -0.1077   -1.7598 H   0  0
    1.6168   -1.6304   -2.5077 H   0  0
   -1.5833    0.2765   -2.0641 H   0  0
   -0.5489   -0.5199   -3.2654 H   0  0
   -0.0295    1.0029   -2.5177 H   0  0
    0.4889    3.7476    0.1827 H   0  0
   -0.8835    3.8885    1.3046 H   0  0
    0.5780    4.8751    1.5246 H   0  0
    0.8744    2.2102    4.2005 H   0  0
   -0.6524    2.9124    3.6959 H   0  0
    0.7571    3.9658    3.9477 H   0  0
    2.7904    1.9900    2.5846 H   0  0
    2.6480    2.5955    0.9201 H   0  0
    2.7851    3.7203    2.2907 H   0  0
   -7.6970    1.7826    8.1141 H   0  0
   -8.4997    0.4610    7.2101 H   0  0
   -8.6866    2.1528    6.6779 H   0  0
   -2.8062   -1.3035    1.3798 H   0  0
   -2.5087   -0.0298    0.1684 H   0  0
  1  3  1  0
  1  5  2  0
  2  4  2  0
  2  5  1  0
  3  6  2  0
  4  6  1  0
  5  7  1  0
  6 24  1  0
  7 21  2  0
  7 25  1  0
  8 20  1  0
  8 22  2  0
  8 26  1  0
  9 10  1  0
  9 23  1  0
 10 18  1  0
 10 20  1  0
 11 12  1  0
 11 13  1  0
 11 20  1  0
 11 23  1  0
 14 19  1  0
 15 19  1  0
 16 19  1  0
 17 25  1  0
 18 24  1  0
 19 26  1  0
  1 27  1  0
  2 28  1  0
  3 29  1  0
  4 30  1  0
  9 31  1  0
  9 32  1  0
 10 33  1  0
 12 34  1  0
 12 35  1  0
 12 36  1  0
 13 37  1  0
 13 38  1  0
 13 39  1  0
 14 40  1  0
 14 41  1  0
 14 42  1  0
 15 43  1  0
 15 44  1  0
 15 45  1  0
 16 46  1  0
 16 47  1  0
 16 48  1  0
 17 49  1  0
 17 50  1  0
 17 51  1  0
 18 52  1  0
 18 53  1  0
M  END
> <Name>
BR010410

$$$$
BR010411
  SciTegic05062102053D

 51 52  0  0  1  0            999 V2000
   -5.8255    0.7807    4.2380 C   0  0
   -5.8103    0.9758    2.8570 C   0  0
   -4.6393    0.4993    4.9158 C   0  0
   -4.6089    0.8894    2.1536 C   0  0
   -3.4378    0.4129    4.2124 C   0  0
   -3.4226    0.6080    2.8313 C   0  0
    0.5585    1.1750    0.3874 C   0  0
   -0.6157   -2.2720    0.3126 C   0  0
   -0.7213   -0.9175    0.9861 C   0  0  2  0  0  0
    0.1378   -0.7189   -1.2321 C   0  0
    1.5899   -1.0343   -1.5983 C   0  0
   -0.5536    0.0641   -2.3466 C   0  0
    0.2091    3.8850    1.2333 C   0  0
    0.4335    2.9906    3.5698 C   0  0
    2.3472    2.7723    1.9579 C   0  0
   -1.9331   -1.2382    5.0282 C   0  0
   -2.1730   -0.4586    1.1118 C   0  0
    0.8267    2.7943    2.1072 C   0  0
    0.0232   -0.0670    0.0714 N   0  0
    1.1861    1.8843   -0.3953 O   0  0
   -0.5687   -1.9754   -1.0924 O   0  0
   -2.2863    0.1363    4.8856 O   0  0
   -2.2464    0.5244    2.1273 O   0  0
    0.3090    1.5267    1.6878 O   0  0
   -6.7612    0.8482    4.7859 H   0  0
   -6.7338    1.1948    2.3294 H   0  0
   -4.6579    0.3485    5.9918 H   0  0
   -4.6044    1.0409    1.0777 H   0  0
    0.3183   -2.7789    0.5811 H   0  0
   -1.4514   -2.9443    0.5259 H   0  0
   -0.2573   -0.9241    1.9779 H   0  0
    2.0585   -1.5911   -0.7899 H   0  0
    2.1361   -0.1077   -1.7598 H   0  0
    1.6168   -1.6304   -2.5077 H   0  0
   -1.5833    0.2765   -2.0641 H   0  0
   -0.5489   -0.5199   -3.2654 H   0  0
   -0.0295    1.0029   -2.5177 H   0  0
    0.4889    3.7476    0.1827 H   0  0
   -0.8835    3.8885    1.3046 H   0  0
    0.5780    4.8751    1.5246 H   0  0
    0.8744    2.2102    4.2005 H   0  0
   -0.6524    2.9124    3.6959 H   0  0
    0.7571    3.9658    3.9477 H   0  0
    2.7904    1.9900    2.5846 H   0  0
    2.6480    2.5955    0.9201 H   0  0
    2.7851    3.7203    2.2907 H   0  0
   -0.9954   -1.3184    5.5836 H   0  0
   -1.8235   -1.6916    4.0398 H   0  0
   -2.7245   -1.7534    5.5776 H   0  0
   -2.8062   -1.3035    1.3798 H   0  0
   -2.5087   -0.0298    0.1684 H   0  0
  1  2  2  0
  1  3  1  0
  2  4  1  0
  3  5  2  0
  4  6  2  0
  5  6  1  0
  5 22  1  0
  6 23  1  0
  7 19  1  0
  7 20  2  0
  7 24  1  0
  8  9  1  0
  8 21  1  0
  9 17  1  0
  9 19  1  0
 10 11  1  0
 10 12  1  0
 10 19  1  0
 10 21  1  0
 13 18  1  0
 14 18  1  0
 15 18  1  0
 16 22  1  0
 17 23  1  0
 18 24  1  0
  1 25  1  0
  2 26  1  0
  3 27  1  0
  4 28  1  0
  8 29  1  0
  8 30  1  0
  9 31  1  0
 11 32  1  0
 11 33  1  0
 11 34  1  0
 12 35  1  0
 12 36  1  0
 12 37  1  0
 13 38  1  0
 13 39  1  0
 13 40  1  0
 14 41  1  0
 14 42  1  0
 14 43  1  0
 15 44  1  0
 15 45  1  0
 15 46  1  0
 16 47  1  0
 16 48  1  0
 16 49  1  0
 17 50  1  0
 17 51  1  0
M  END
> <Name>
BR010411

$$$$
BR010412
  SciTegic05062102053D

 51 52  0  0  1  0            999 V2000
   -5.8225    0.3485    2.9336 C   0  0
   -5.8118    0.7732    4.2621 C   0  0
   -4.6278    0.2658    2.2182 C   0  0
   -3.4119    1.0327    4.1599 C   0  0
   -4.6066    1.1154    4.8753 C   0  0
   -3.4226    0.6080    2.8313 C   0  0
    0.5585    1.1750    0.3874 C   0  0
   -0.6157   -2.2720    0.3126 C   0  0
   -0.7213   -0.9175    0.9861 C   0  0  2  0  0  0
    0.1378   -0.7189   -1.2321 C   0  0
    1.5899   -1.0343   -1.5983 C   0  0
   -0.5536    0.0641   -2.3466 C   0  0
    0.2091    3.8850    1.2333 C   0  0
    0.4335    2.9906    3.5698 C   0  0
    2.3472    2.7723    1.9579 C   0  0
   -3.3299    1.8659    6.7361 C   0  0
   -2.1730   -0.4586    1.1118 C   0  0
    0.8267    2.7943    2.1072 C   0  0
    0.0232   -0.0670    0.0714 N   0  0
    1.1861    1.8843   -0.3953 O   0  0
   -0.5687   -1.9754   -1.0924 O   0  0
   -4.5967    1.5317    6.1711 O   0  0
   -2.2464    0.5244    2.1273 O   0  0
    0.3090    1.5267    1.6878 O   0  0
   -6.7609    0.0820    2.4562 H   0  0
   -6.7455    0.8360    4.8143 H   0  0
   -4.6420   -0.0669    1.1839 H   0  0
   -2.4727    1.2997    4.6377 H   0  0
    0.3183   -2.7789    0.5811 H   0  0
   -1.4514   -2.9443    0.5259 H   0  0
   -0.2573   -0.9241    1.9779 H   0  0
    2.0585   -1.5911   -0.7899 H   0  0
    2.1361   -0.1077   -1.7598 H   0  0
    1.6168   -1.6304   -2.5077 H   0  0
   -1.5833    0.2765   -2.0641 H   0  0
   -0.5489   -0.5199   -3.2654 H   0  0
   -0.0295    1.0029   -2.5177 H   0  0
    0.4889    3.7476    0.1827 H   0  0
   -0.8835    3.8885    1.3046 H   0  0
    0.5780    4.8751    1.5246 H   0  0
    0.8744    2.2102    4.2005 H   0  0
   -0.6524    2.9124    3.6959 H   0  0
    0.7571    3.9658    3.9477 H   0  0
    2.7904    1.9900    2.5846 H   0  0
    2.6480    2.5955    0.9201 H   0  0
    2.7851    3.7203    2.2907 H   0  0
   -3.4647    2.1819    7.7734 H   0  0
   -2.8718    2.6705    6.1555 H   0  0
   -2.6842    0.9850    6.7070 H   0  0
   -2.8062   -1.3035    1.3798 H   0  0
   -2.5087   -0.0298    0.1684 H   0  0
  1  2  2  0
  1  3  1  0
  2  5  1  0
  3  6  2  0
  4  5  2  0
  4  6  1  0
  5 22  1  0
  6 23  1  0
  7 19  1  0
  7 20  2  0
  7 24  1  0
  8  9  1  0
  8 21  1  0
  9 17  1  0
  9 19  1  0
 10 11  1  0
 10 12  1  0
 10 19  1  0
 10 21  1  0
 13 18  1  0
 14 18  1  0
 15 18  1  0
 16 22  1  0
 17 23  1  0
 18 24  1  0
  1 25  1  0
  2 26  1  0
  3 27  1  0
  4 28  1  0
  8 29  1  0
  8 30  1  0
  9 31  1  0
 11 32  1  0
 11 33  1  0
 11 34  1  0
 12 35  1  0
 12 36  1  0
 12 37  1  0
 13 38  1  0
 13 39  1  0
 13 40  1  0
 14 41  1  0
 14 42  1  0
 14 43  1  0
 15 44  1  0
 15 45  1  0
 15 46  1  0
 16 47  1  0
 16 48  1  0
 16 49  1  0
 17 50  1  0
 17 51  1  0
M  END
> <Name>
BR010412

$$$$
BR010413
  SciTegic05062102053D

 51 52  0  0  1  0            999 V2000
   -4.6063    1.1198    4.8743 C   0  0
   -5.8227    0.3504    2.9338 C   0  0
   -3.4117    1.0350    4.1592 C   0  0
   -4.6281    0.2657    2.2186 C   0  0
   -5.8118    0.7774    4.2616 C   0  0
   -3.4226    0.6080    2.8313 C   0  0
    0.5585    1.1750    0.3874 C   0  0
   -0.6157   -2.2720    0.3126 C   0  0
   -0.7213   -0.9175    0.9861 C   0  0  2  0  0  0
    0.1378   -0.7189   -1.2321 C   0  0
    1.5899   -1.0343   -1.5983 C   0  0
   -0.5536    0.0641   -2.3466 C   0  0
    0.2091    3.8850    1.2333 C   0  0
    0.4335    2.9906    3.5698 C   0  0
    2.3472    2.7723    1.9579 C   0  0
   -6.8940    1.3010    6.3136 C   0  0
   -2.1730   -0.4586    1.1118 C   0  0
    0.8267    2.7943    2.1072 C   0  0
    0.0232   -0.0670    0.0714 N   0  0
    1.1861    1.8843   -0.3953 O   0  0
   -0.5687   -1.9754   -1.0924 O   0  0
   -6.9773    0.8585    4.9596 O   0  0
   -2.2464    0.5244    2.1273 O   0  0
    0.3090    1.5267    1.6878 O   0  0
   -4.5913    1.4507    5.9091 H   0  0
   -6.7587    0.0817    2.4517 H   0  0
   -2.4759    1.3042    4.6412 H   0  0
   -4.6426   -0.0678    1.1846 H   0  0
    0.3183   -2.7789    0.5811 H   0  0
   -1.4514   -2.9443    0.5259 H   0  0
   -0.2573   -0.9241    1.9779 H   0  0
    2.0585   -1.5911   -0.7899 H   0  0
    2.1361   -0.1077   -1.7598 H   0  0
    1.6168   -1.6304   -2.5077 H   0  0
   -1.5833    0.2765   -2.0641 H   0  0
   -0.5489   -0.5199   -3.2654 H   0  0
   -0.0295    1.0029   -2.5177 H   0  0
    0.4889    3.7476    0.1827 H   0  0
   -0.8835    3.8885    1.3046 H   0  0
    0.5780    4.8751    1.5246 H   0  0
    0.8744    2.2102    4.2005 H   0  0
   -0.6524    2.9124    3.6959 H   0  0
    0.7571    3.9658    3.9477 H   0  0
    2.7904    1.9900    2.5846 H   0  0
    2.6480    2.5955    0.9201 H   0  0
    2.7851    3.7203    2.2907 H   0  0
   -7.8940    1.3198    6.7537 H   0  0
   -6.4517    2.2999    6.3448 H   0  0
   -6.2639    0.6078    6.8759 H   0  0
   -2.8062   -1.3035    1.3798 H   0  0
   -2.5087   -0.0298    0.1684 H   0  0
  1  3  1  0
  1  5  2  0
  2  4  2  0
  2  5  1  0
  3  6  2  0
  4  6  1  0
  5 22  1  0
  6 23  1  0
  7 19  1  0
  7 20  2  0
  7 24  1  0
  8  9  1  0
  8 21  1  0
  9 17  1  0
  9 19  1  0
 10 11  1  0
 10 12  1  0
 10 19  1  0
 10 21  1  0
 13 18  1  0
 14 18  1  0
 15 18  1  0
 16 22  1  0
 17 23  1  0
 18 24  1  0
  1 25  1  0
  2 26  1  0
  3 27  1  0
  4 28  1  0
  8 29  1  0
  8 30  1  0
  9 31  1  0
 11 32  1  0
 11 33  1  0
 11 34  1  0
 12 35  1  0
 12 36  1  0
 12 37  1  0
 13 38  1  0
 13 39  1  0
 13 40  1  0
 14 41  1  0
 14 42  1  0
 14 43  1  0
 15 44  1  0
 15 45  1  0
 15 46  1  0
 16 47  1  0
 16 48  1  0
 16 49  1  0
 17 50  1  0
 17 51  1  0
M  END
> <Name>
BR010413

$$$$
BR010414
  SciTegic05062102053D

 49 50  0  0  1  0            999 V2000
   -5.9998    2.1578    2.8849 C   0  0
   -5.4251    2.2724    1.6192 C   0  0
   -5.3165    1.4936    3.9036 C   0  0
   -4.1672    1.7228    1.3720 C   0  0
   -4.0586    0.9441    3.6565 C   0  0
   -3.4838    1.0586    2.3907 C   0  0
   -3.3508    0.2452    4.7443 C   0  0
    0.5585    1.1750    0.3874 C   0  0
   -0.6157   -2.2720    0.3126 C   0  0
   -0.7213   -0.9175    0.9861 C   0  0  2  0  0  0
    0.1378   -0.7189   -1.2321 C   0  0
    1.5899   -1.0343   -1.5983 C   0  0
   -0.5536    0.0641   -2.3466 C   0  0
    0.2091    3.8850    1.2333 C   0  0
    0.4335    2.9906    3.5698 C   0  0
    2.3472    2.7723    1.9579 C   0  0
   -2.1730   -0.4586    1.1118 C   0  0
    0.8267    2.7943    2.1072 C   0  0
    0.0232   -0.0670    0.0714 N   0  0
   -3.9172    0.1628    5.8968 O   0  5
   -2.1910   -0.2578    4.5035 O   0  0
    1.1861    1.8843   -0.3953 O   0  0
   -0.5687   -1.9754   -1.0924 O   0  0
   -2.2464    0.5244    2.1273 O   0  0
    0.3090    1.5267    1.6878 O   0  0
   -6.9799    2.5850    3.0772 H   0  0
   -5.9576    2.7891    0.8262 H   0  0
   -5.7745    1.4097    4.8859 H   0  0
   -3.7259    1.8157    0.3835 H   0  0
    0.3183   -2.7789    0.5811 H   0  0
   -1.4514   -2.9443    0.5259 H   0  0
   -0.2573   -0.9241    1.9779 H   0  0
    2.0585   -1.5911   -0.7899 H   0  0
    2.1361   -0.1077   -1.7598 H   0  0
    1.6168   -1.6304   -2.5077 H   0  0
   -1.5833    0.2765   -2.0641 H   0  0
   -0.5489   -0.5199   -3.2654 H   0  0
   -0.0295    1.0029   -2.5177 H   0  0
    0.4889    3.7476    0.1827 H   0  0
   -0.8835    3.8885    1.3046 H   0  0
    0.5780    4.8751    1.5246 H   0  0
    0.8744    2.2102    4.2005 H   0  0
   -0.6524    2.9124    3.6959 H   0  0
    0.7571    3.9658    3.9477 H   0  0
    2.7904    1.9900    2.5846 H   0  0
    2.6480    2.5955    0.9201 H   0  0
    2.7851    3.7203    2.2907 H   0  0
   -2.8062   -1.3035    1.3798 H   0  0
   -2.5087   -0.0298    0.1684 H   0  0
  1  2  2  0
  1  3  1  0
  2  4  1  0
  3  5  2  0
  4  6  2  0
  5  6  1  0
  5  7  1  0
  6 24  1  0
  7 20  1  0
  7 21  2  0
  8 19  1  0
  8 22  2  0
  8 25  1  0
  9 10  1  0
  9 23  1  0
 10 17  1  0
 10 19  1  0
 11 12  1  0
 11 13  1  0
 11 19  1  0
 11 23  1  0
 14 18  1  0
 15 18  1  0
 16 18  1  0
 17 24  1  0
 18 25  1  0
  1 26  1  0
  2 27  1  0
  3 28  1  0
  4 29  1  0
  9 30  1  0
  9 31  1  0
 10 32  1  0
 12 33  1  0
 12 34  1  0
 12 35  1  0
 13 36  1  0
 13 37  1  0
 13 38  1  0
 14 39  1  0
 14 40  1  0
 14 41  1  0
 15 42  1  0
 15 43  1  0
 15 44  1  0
 16 45  1  0
 16 46  1  0
 16 47  1  0
 17 48  1  0
 17 49  1  0
M  CHG  1  20  -1
M  END
> <Name>
BR010414

$$$$
BR010415
  SciTegic05062102053D

 49 50  0  0  1  0            999 V2000
   -5.8228    0.3517    2.9336 C   0  0
   -5.8119    0.7794    4.2612 C   0  0
   -4.6281    0.2660    2.2186 C   0  0
   -3.4117    1.0357    4.1590 C   0  0
   -4.6064    1.1214    4.8739 C   0  0
   -3.4226    0.6080    2.8313 C   0  0
   -4.5949    1.5733    6.2743 C   0  0
    0.5585    1.1750    0.3874 C   0  0
   -0.6157   -2.2720    0.3126 C   0  0
   -0.7213   -0.9175    0.9861 C   0  0  2  0  0  0
    0.1378   -0.7189   -1.2321 C   0  0
    1.5899   -1.0343   -1.5983 C   0  0
   -0.5536    0.0641   -2.3466 C   0  0
    0.2091    3.8850    1.2333 C   0  0
    0.4335    2.9906    3.5698 C   0  0
    2.3472    2.7723    1.9579 C   0  0
   -2.1730   -0.4586    1.1118 C   0  0
    0.8267    2.7943    2.1072 C   0  0
    0.0232   -0.0670    0.0714 N   0  0
   -3.4684    1.8829    6.8167 O   0  5
   -5.7117    1.6443    6.9122 O   0  0
    1.1861    1.8843   -0.3953 O   0  0
   -0.5687   -1.9754   -1.0924 O   0  0
   -2.2464    0.5244    2.1273 O   0  0
    0.3090    1.5267    1.6878 O   0  0
   -6.7614    0.0857    2.4565 H   0  0
   -6.7480    0.8423    4.8098 H   0  0
   -4.6431   -0.0679    1.1847 H   0  0
   -2.4693    1.3016    4.6322 H   0  0
    0.3183   -2.7789    0.5811 H   0  0
   -1.4514   -2.9443    0.5259 H   0  0
   -0.2573   -0.9241    1.9779 H   0  0
    2.0585   -1.5911   -0.7899 H   0  0
    2.1361   -0.1077   -1.7598 H   0  0
    1.6168   -1.6304   -2.5077 H   0  0
   -1.5833    0.2765   -2.0641 H   0  0
   -0.5489   -0.5199   -3.2654 H   0  0
   -0.0295    1.0029   -2.5177 H   0  0
    0.4889    3.7476    0.1827 H   0  0
   -0.8835    3.8885    1.3046 H   0  0
    0.5780    4.8751    1.5246 H   0  0
    0.8744    2.2102    4.2005 H   0  0
   -0.6524    2.9124    3.6959 H   0  0
    0.7571    3.9658    3.9477 H   0  0
    2.7904    1.9900    2.5846 H   0  0
    2.6480    2.5955    0.9201 H   0  0
    2.7851    3.7203    2.2907 H   0  0
   -2.8062   -1.3035    1.3798 H   0  0
   -2.5087   -0.0298    0.1684 H   0  0
  1  2  2  0
  1  3  1  0
  2  5  1  0
  3  6  2  0
  4  5  2  0
  4  6  1  0
  5  7  1  0
  6 24  1  0
  7 20  1  0
  7 21  2  0
  8 19  1  0
  8 22  2  0
  8 25  1  0
  9 10  1  0
  9 23  1  0
 10 17  1  0
 10 19  1  0
 11 12  1  0
 11 13  1  0
 11 19  1  0
 11 23  1  0
 14 18  1  0
 15 18  1  0
 16 18  1  0
 17 24  1  0
 18 25  1  0
  1 26  1  0
  2 27  1  0
  3 28  1  0
  4 29  1  0
  9 30  1  0
  9 31  1  0
 10 32  1  0
 12 33  1  0
 12 34  1  0
 12 35  1  0
 13 36  1  0
 13 37  1  0
 13 38  1  0
 14 39  1  0
 14 40  1  0
 14 41  1  0
 15 42  1  0
 15 43  1  0
 15 44  1  0
 16 45  1  0
 16 46  1  0
 16 47  1  0
 17 48  1  0
 17 49  1  0
M  CHG  1  20  -1
M  END
> <Name>
BR010415

$$$$
BR010416
  SciTegic05062102053D

 49 50  0  0  1  0            999 V2000
   -5.8226    0.3506    2.9333 C   0  0
   -4.6067    1.1196    4.8742 C   0  0
   -4.6280    0.2659    2.2184 C   0  0
   -3.4119    1.0349    4.1593 C   0  0
   -5.8120    0.7775    4.2612 C   0  0
   -3.4226    0.6080    2.8313 C   0  0
   -7.0725    0.8669    5.0156 C   0  0
    0.5585    1.1750    0.3874 C   0  0
   -0.6157   -2.2720    0.3126 C   0  0
   -0.7213   -0.9175    0.9861 C   0  0  2  0  0  0
    0.1378   -0.7189   -1.2321 C   0  0
    1.5899   -1.0343   -1.5983 C   0  0
   -0.5536    0.0641   -2.3466 C   0  0
    0.2091    3.8850    1.2333 C   0  0
    0.4335    2.9906    3.5698 C   0  0
    2.3472    2.7723    1.9579 C   0  0
   -2.1730   -0.4586    1.1118 C   0  0
    0.8267    2.7943    2.1072 C   0  0
    0.0232   -0.0670    0.0714 N   0  0
   -7.0351    1.2637    6.2404 O   0  5
   -8.1717    0.5452    4.4266 O   0  0
    1.1861    1.8843   -0.3953 O   0  0
   -0.5687   -1.9754   -1.0924 O   0  0
   -2.2464    0.5244    2.1273 O   0  0
    0.3090    1.5267    1.6878 O   0  0
   -6.7564    0.0814    2.4463 H   0  0
   -4.5875    1.4534    5.9084 H   0  0
   -4.6421   -0.0674    1.1842 H   0  0
   -2.4765    1.3030    4.6427 H   0  0
    0.3183   -2.7789    0.5811 H   0  0
   -1.4514   -2.9443    0.5259 H   0  0
   -0.2573   -0.9241    1.9779 H   0  0
    2.0585   -1.5911   -0.7899 H   0  0
    2.1361   -0.1077   -1.7598 H   0  0
    1.6168   -1.6304   -2.5077 H   0  0
   -1.5833    0.2765   -2.0641 H   0  0
   -0.5489   -0.5199   -3.2654 H   0  0
   -0.0295    1.0029   -2.5177 H   0  0
    0.4889    3.7476    0.1827 H   0  0
   -0.8835    3.8885    1.3046 H   0  0
    0.5780    4.8751    1.5246 H   0  0
    0.8744    2.2102    4.2005 H   0  0
   -0.6524    2.9124    3.6959 H   0  0
    0.7571    3.9658    3.9477 H   0  0
    2.7904    1.9900    2.5846 H   0  0
    2.6480    2.5955    0.9201 H   0  0
    2.7851    3.7203    2.2907 H   0  0
   -2.8062   -1.3035    1.3798 H   0  0
   -2.5087   -0.0298    0.1684 H   0  0
  1  3  1  0
  1  5  2  0
  2  4  2  0
  2  5  1  0
  3  6  2  0
  4  6  1  0
  5  7  1  0
  6 24  1  0
  7 20  1  0
  7 21  2  0
  8 19  1  0
  8 22  2  0
  8 25  1  0
  9 10  1  0
  9 23  1  0
 10 17  1  0
 10 19  1  0
 11 12  1  0
 11 13  1  0
 11 19  1  0
 11 23  1  0
 14 18  1  0
 15 18  1  0
 16 18  1  0
 17 24  1  0
 18 25  1  0
  1 26  1  0
  2 27  1  0
  3 28  1  0
  4 29  1  0
  9 30  1  0
  9 31  1  0
 10 32  1  0
 12 33  1  0
 12 34  1  0
 12 35  1  0
 13 36  1  0
 13 37  1  0
 13 38  1  0
 14 39  1  0
 14 40  1  0
 14 41  1  0
 15 42  1  0
 15 43  1  0
 15 44  1  0
 16 45  1  0
 16 46  1  0
 16 47  1  0
 17 48  1  0
 17 49  1  0
M  CHG  1  20  -1
M  END
> <Name>
BR010416

$$$$
BR010417
  SciTegic05062102053D

 49 50  0  0  1  0            999 V2000
    5.7291   -1.7823    3.5752 C   0  0
    5.1984   -0.5804    3.1070 C   0  0
    5.0505   -2.9797    3.3484 C   0  0
    3.9890   -0.5758    2.4120 C   0  0
    3.8411   -2.9752    2.6534 C   0  0
    3.3103   -1.7732    2.1852 C   0  0
   -0.6427    0.1265    1.1890 C   0  0
    0.7374   -1.2103   -1.9054 C   0  0
    0.7350   -1.2813   -0.3907 C   0  0  1  0  0  0
   -0.0455    0.8390   -1.1610 C   0  0
    0.6421    2.1658   -0.8450 C   0  0
   -1.4603    1.0650   -1.6987 C   0  0
   -2.5828   -0.6279    3.1508 C   0  0
   -0.7660   -2.0608    4.1284 C   0  0
   -0.4781    0.4325    4.0345 C   0  0
    2.1505   -1.2293    0.1815 C   0  0
   -1.0752   -0.7903    3.3394 C   0  0
   -0.0220   -0.0919   -0.0341 N   0  0
    3.1628   -4.2051    2.4311 N   0  3
    2.3307   -4.6004    3.2815 O   0  5
   -1.2798    1.1366    1.4780 O   0  0
    3.4167   -4.8576    1.3911 O   0  0
    0.7286    0.1954   -2.2024 O   0  0
    2.1205   -1.7425    1.5001 O   0  0
   -0.4665   -0.9244    2.0501 O   0  0
    6.6707   -1.7859    4.1166 H   0  0
    5.7268    0.3519    3.2834 H   0  0
    5.4762   -3.9092    3.7191 H   0  0
    3.5812    0.3644    2.0497 H   0  0
    1.6027   -1.6869   -2.3744 H   0  0
   -0.1745   -1.6491   -2.3264 H   0  0
    0.2329   -2.1855   -0.0311 H   0  0
    1.6452    1.9802   -0.4648 H   0  0
    0.0704    2.7078   -0.0936 H   0  0
    0.7089    2.7709   -1.7477 H   0  0
   -1.9270    0.1066   -1.9154 H   0  0
   -1.4152    1.6566   -2.6103 H   0  0
   -2.0539    1.5938   -0.9562 H   0  0
   -2.8088    0.2829    2.5849 H   0  0
   -3.0176   -1.4826    2.6223 H   0  0
   -3.0889   -0.5248    4.1175 H   0  0
    0.3146   -2.1814    4.2660 H   0  0
   -1.1093   -2.9498    3.5869 H   0  0
   -1.2420   -2.0501    5.1142 H   0  0
    0.6032    0.3162    4.1698 H   0  0
   -0.6584    1.3490    3.4634 H   0  0
   -0.9036    0.5573    5.0368 H   0  0
    2.5035   -0.1990    0.2024 H   0  0
    2.8186   -1.8366   -0.4279 H   0  0
  1  2  2  0
  1  3  1  0
  2  4  1  0
  3  5  2  0
  4  6  2  0
  5  6  1  0
  5 19  1  0
  6 24  1  0
  7 18  1  0
  7 21  2  0
  7 25  1  0
  8  9  1  0
  8 23  1  0
  9 16  1  0
  9 18  1  0
 10 11  1  0
 10 12  1  0
 10 18  1  0
 10 23  1  0
 13 17  1  0
 14 17  1  0
 15 17  1  0
 16 24  1  0
 17 25  1  0
 19 20  1  0
 19 22  2  0
  1 26  1  0
  2 27  1  0
  3 28  1  0
  4 29  1  0
  8 30  1  0
  8 31  1  0
  9 32  1  0
 11 33  1  0
 11 34  1  0
 11 35  1  0
 12 36  1  0
 12 37  1  0
 12 38  1  0
 13 39  1  0
 13 40  1  0
 13 41  1  0
 14 42  1  0
 14 43  1  0
 14 44  1  0
 15 45  1  0
 15 46  1  0
 15 47  1  0
 16 48  1  0
 16 49  1  0
M  CHG  2  19   1  20  -1
M  END
> <Name>
BR010417

$$$$
BR010418
  SciTegic05062102053D

 49 50  0  0  1  0            999 V2000
    5.6642   -2.5889    1.9418 C   0  0
    4.3234   -4.0171    3.3558 C   0  0
    4.5078   -1.9609    1.4794 C   0  0
    3.1669   -3.3891    2.8935 C   0  0
    5.5720   -3.6171    2.8799 C   0  0
    3.2591   -2.3609    1.9553 C   0  0
   -0.6427    0.1265    1.1890 C   0  0
    0.7374   -1.2103   -1.9054 C   0  0
    0.7350   -1.2813   -0.3907 C   0  0  1  0  0  0
   -0.0455    0.8390   -1.1610 C   0  0
    0.6421    2.1658   -0.8450 C   0  0
   -1.4603    1.0650   -1.6987 C   0  0
   -2.5828   -0.6279    3.1508 C   0  0
   -0.7660   -2.0608    4.1284 C   0  0
   -0.4781    0.4325    4.0345 C   0  0
    2.1505   -1.2293    0.1815 C   0  0
   -1.0752   -0.7903    3.3394 C   0  0
   -0.0220   -0.0919   -0.0341 N   0  0
    6.7491   -4.2567    3.3506 N   0  3
    7.8625   -3.8819    2.9098 O   0  5
   -1.2798    1.1366    1.4780 O   0  0
    6.6437   -5.1791    4.1948 O   0  0
    0.7286    0.1954   -2.2024 O   0  0
    2.1205   -1.7425    1.5001 O   0  0
   -0.4665   -0.9244    2.0501 O   0  0
    6.6312   -2.2672    1.5629 H   0  0
    4.2370   -4.8174    4.0867 H   0  0
    4.5859   -1.1604    0.7488 H   0  0
    2.1970   -3.7054    3.2676 H   0  0
    1.6027   -1.6869   -2.3744 H   0  0
   -0.1745   -1.6491   -2.3264 H   0  0
    0.2329   -2.1855   -0.0311 H   0  0
    1.6452    1.9802   -0.4648 H   0  0
    0.0704    2.7078   -0.0936 H   0  0
    0.7089    2.7709   -1.7477 H   0  0
   -1.9270    0.1066   -1.9154 H   0  0
   -1.4152    1.6566   -2.6103 H   0  0
   -2.0539    1.5938   -0.9562 H   0  0
   -2.8088    0.2829    2.5849 H   0  0
   -3.0176   -1.4826    2.6223 H   0  0
   -3.0889   -0.5248    4.1175 H   0  0
    0.3146   -2.1814    4.2660 H   0  0
   -1.1093   -2.9498    3.5869 H   0  0
   -1.2420   -2.0501    5.1142 H   0  0
    0.6032    0.3162    4.1698 H   0  0
   -0.6584    1.3490    3.4634 H   0  0
   -0.9036    0.5573    5.0368 H   0  0
    2.5035   -0.1990    0.2024 H   0  0
    2.8186   -1.8366   -0.4279 H   0  0
  1  3  1  0
  1  5  2  0
  2  4  2  0
  2  5  1  0
  3  6  2  0
  4  6  1  0
  5 19  1  0
  6 24  1  0
  7 18  1  0
  7 21  2  0
  7 25  1  0
  8  9  1  0
  8 23  1  0
  9 16  1  0
  9 18  1  0
 10 11  1  0
 10 12  1  0
 10 18  1  0
 10 23  1  0
 13 17  1  0
 14 17  1  0
 15 17  1  0
 16 24  1  0
 17 25  1  0
 19 20  1  0
 19 22  2  0
  1 26  1  0
  2 27  1  0
  3 28  1  0
  4 29  1  0
  8 30  1  0
  8 31  1  0
  9 32  1  0
 11 33  1  0
 11 34  1  0
 11 35  1  0
 12 36  1  0
 12 37  1  0
 12 38  1  0
 13 39  1  0
 13 40  1  0
 13 41  1  0
 14 42  1  0
 14 43  1  0
 14 44  1  0
 15 45  1  0
 15 46  1  0
 15 47  1  0
 16 48  1  0
 16 49  1  0
M  CHG  2  19   1  20  -1
M  END
> <Name>
BR010418

$$$$
BR010419
  SciTegic05062102053D

 47 48  0  0  1  0            999 V2000
    5.5716   -3.6156    2.8831 C   0  0
    5.6643   -2.5887    1.9437 C   0  0
    4.3226   -4.0152    3.3586 C   0  0
    4.5081   -1.9614    1.4798 C   0  0
    3.1664   -3.3879    2.8947 C   0  0
    3.2591   -2.3609    1.9553 C   0  0
   -0.6427    0.1265    1.1890 C   0  0
    0.7374   -1.2103   -1.9054 C   0  0
    0.7350   -1.2813   -0.3907 C   0  0  1  0  0  0
   -0.0455    0.8390   -1.1610 C   0  0
    0.6421    2.1658   -0.8450 C   0  0
   -1.4603    1.0650   -1.6987 C   0  0
   -2.5828   -0.6279    3.1508 C   0  0
   -0.7660   -2.0608    4.1284 C   0  0
   -0.4781    0.4325    4.0345 C   0  0
    2.1505   -1.2293    0.1815 C   0  0
   -1.0752   -0.7903    3.3394 C   0  0
   -0.0220   -0.0919   -0.0341 N   0  0
   -1.2798    1.1366    1.4780 O   0  0
    0.7286    0.1954   -2.2024 O   0  0
    2.1205   -1.7425    1.5001 O   0  0
   -0.4665   -0.9244    2.0501 O   0  0
    6.4716   -4.1046    3.2441 H   0  0
    6.6368   -2.2773    1.5734 H   0  0
    4.2512   -4.8151    4.0900 H   0  0
    4.5872   -1.1611    0.7490 H   0  0
    2.1962   -3.7021    3.2700 H   0  0
    1.6027   -1.6869   -2.3744 H   0  0
   -0.1745   -1.6491   -2.3264 H   0  0
    0.2329   -2.1855   -0.0311 H   0  0
    1.6452    1.9802   -0.4648 H   0  0
    0.0704    2.7078   -0.0936 H   0  0
    0.7089    2.7709   -1.7477 H   0  0
   -1.9270    0.1066   -1.9154 H   0  0
   -1.4152    1.6566   -2.6103 H   0  0
   -2.0539    1.5938   -0.9562 H   0  0
   -2.8088    0.2829    2.5849 H   0  0
   -3.0176   -1.4826    2.6223 H   0  0
   -3.0889   -0.5248    4.1175 H   0  0
    0.3146   -2.1814    4.2660 H   0  0
   -1.1093   -2.9498    3.5869 H   0  0
   -1.2420   -2.0501    5.1142 H   0  0
    0.6032    0.3162    4.1698 H   0  0
   -0.6584    1.3490    3.4634 H   0  0
   -0.9036    0.5573    5.0368 H   0  0
    2.5035   -0.1990    0.2024 H   0  0
    2.8186   -1.8366   -0.4279 H   0  0
  1  2  2  0
  1  3  1  0
  2  4  1  0
  3  5  2  0
  4  6  2  0
  5  6  1  0
  6 21  1  0
  7 18  1  0
  7 19  2  0
  7 22  1  0
  8  9  1  0
  8 20  1  0
  9 16  1  0
  9 18  1  0
 10 11  1  0
 10 12  1  0
 10 18  1  0
 10 20  1  0
 13 17  1  0
 14 17  1  0
 15 17  1  0
 16 21  1  0
 17 22  1  0
  1 23  1  0
  2 24  1  0
  3 25  1  0
  4 26  1  0
  5 27  1  0
  8 28  1  0
  8 29  1  0
  9 30  1  0
 11 31  1  0
 11 32  1  0
 11 33  1  0
 12 34  1  0
 12 35  1  0
 12 36  1  0
 13 37  1  0
 13 38  1  0
 13 39  1  0
 14 40  1  0
 14 41  1  0
 14 42  1  0
 15 43  1  0
 15 44  1  0
 15 45  1  0
 16 46  1  0
 16 47  1  0
M  END
> <Name>
BR010419

$$$$
BR010420
  SciTegic05062102053D

 53 54  0  0  1  0            999 V2000
    5.5943   -3.5824    2.8703 C   0  0
    5.6166   -2.2461    2.4711 C   0  0
    4.4045   -4.3080    2.8119 C   0  0
    4.4490   -1.6354    2.0136 C   0  0
    3.2368   -3.6973    2.3544 C   0  0
    3.2591   -2.3609    1.9553 C   0  0
    2.0055   -4.4729    2.3016 C   0  0
   -0.6427    0.1265    1.1890 C   0  0
    0.7374   -1.2103   -1.9054 C   0  0
    0.7350   -1.2813   -0.3907 C   0  0  1  0  0  0
   -0.0455    0.8390   -1.1610 C   0  0
    0.6421    2.1658   -0.8450 C   0  0
   -1.4603    1.0650   -1.6987 C   0  0
   -2.5828   -0.6279    3.1508 C   0  0
   -0.7660   -2.0608    4.1284 C   0  0
   -0.4781    0.4325    4.0345 C   0  0
    0.8168   -6.2726    3.3179 C   0  0
    2.1505   -1.2293    0.1815 C   0  0
   -1.0752   -0.7903    3.3394 C   0  0
   -0.0220   -0.0919   -0.0341 N   0  0
    1.0955   -4.2837    1.4852 O   0  0
   -1.2798    1.1366    1.4780 O   0  0
    0.7286    0.1954   -2.2024 O   0  0
    2.1205   -1.7425    1.5001 O   0  0
    1.9803   -5.4399    3.2682 O   0  0
   -0.4665   -0.9244    2.0501 O   0  0
    6.5039   -4.0578    3.2266 H   0  0
    6.5432   -1.6816    2.5173 H   0  0
    4.3991   -5.3490    3.1252 H   0  0
    4.4732   -0.5940    1.7040 H   0  0
    1.6027   -1.6869   -2.3744 H   0  0
   -0.1745   -1.6491   -2.3264 H   0  0
    0.2329   -2.1855   -0.0311 H   0  0
    1.6452    1.9802   -0.4648 H   0  0
    0.0704    2.7078   -0.0936 H   0  0
    0.7089    2.7709   -1.7477 H   0  0
   -1.9270    0.1066   -1.9154 H   0  0
   -1.4152    1.6566   -2.6103 H   0  0
   -2.0539    1.5938   -0.9562 H   0  0
   -2.8088    0.2829    2.5849 H   0  0
   -3.0176   -1.4826    2.6223 H   0  0
   -3.0889   -0.5248    4.1175 H   0  0
    0.3146   -2.1814    4.2660 H   0  0
   -1.1093   -2.9498    3.5869 H   0  0
   -1.2420   -2.0501    5.1142 H   0  0
    0.6032    0.3162    4.1698 H   0  0
   -0.6584    1.3490    3.4634 H   0  0
   -0.9036    0.5573    5.0368 H   0  0
    0.9215   -6.9983    4.1281 H   0  0
    0.6976   -6.7910    2.3631 H   0  0
   -0.0601   -5.6476    3.5027 H   0  0
    2.5035   -0.1990    0.2024 H   0  0
    2.8186   -1.8366   -0.4279 H   0  0
  1  2  2  0
  1  3  1  0
  2  4  1  0
  3  5  2  0
  4  6  2  0
  5  6  1  0
  5  7  1  0
  6 24  1  0
  7 21  2  0
  7 25  1  0
  8 20  1  0
  8 22  2  0
  8 26  1  0
  9 10  1  0
  9 23  1  0
 10 18  1  0
 10 20  1  0
 11 12  1  0
 11 13  1  0
 11 20  1  0
 11 23  1  0
 14 19  1  0
 15 19  1  0
 16 19  1  0
 17 25  1  0
 18 24  1  0
 19 26  1  0
  1 27  1  0
  2 28  1  0
  3 29  1  0
  4 30  1  0
  9 31  1  0
  9 32  1  0
 10 33  1  0
 12 34  1  0
 12 35  1  0
 12 36  1  0
 13 37  1  0
 13 38  1  0
 13 39  1  0
 14 40  1  0
 14 41  1  0
 14 42  1  0
 15 43  1  0
 15 44  1  0
 15 45  1  0
 16 46  1  0
 16 47  1  0
 16 48  1  0
 17 49  1  0
 17 50  1  0
 17 51  1  0
 18 52  1  0
 18 53  1  0
M  END
> <Name>
BR010420

$$$$
BR010421
  SciTegic05062102053D

 53 54  0  0  1  0            999 V2000
    5.6642   -2.5895    1.9422 C   0  0
    5.5717   -3.6174    2.8804 C   0  0
    4.5079   -1.9612    1.4796 C   0  0
    3.1665   -3.3889    2.8935 C   0  0
    4.3229   -4.0172    3.3561 C   0  0
    3.2591   -2.3609    1.9553 C   0  0
    4.2259   -5.0889    4.3347 C   0  0
   -0.6427    0.1265    1.1890 C   0  0
    0.7374   -1.2103   -1.9054 C   0  0
    0.7350   -1.2813   -0.3907 C   0  0  1  0  0  0
   -0.0455    0.8390   -1.1610 C   0  0
    0.6421    2.1658   -0.8450 C   0  0
   -1.4603    1.0650   -1.6987 C   0  0
   -2.5828   -0.6279    3.1508 C   0  0
   -0.7660   -2.0608    4.1284 C   0  0
   -0.4781    0.4325    4.0345 C   0  0
    2.9354   -5.9232    6.1596 C   0  0
    2.1505   -1.2293    0.1815 C   0  0
   -1.0752   -0.7903    3.3394 C   0  0
   -0.0220   -0.0919   -0.0341 N   0  0
    5.0251   -6.0303    4.4234 O   0  0
   -1.2798    1.1366    1.4780 O   0  0
    0.7286    0.1954   -2.2024 O   0  0
    2.1205   -1.7425    1.5001 O   0  0
    3.1391   -4.9286    5.1501 O   0  0
   -0.4665   -0.9244    2.0501 O   0  0
    6.6366   -2.2783    1.5719 H   0  0
    6.4789   -4.0995    3.2350 H   0  0
    4.5865   -1.1610    0.7487 H   0  0
    2.1903   -3.6964    3.2617 H   0  0
    1.6027   -1.6869   -2.3744 H   0  0
   -0.1745   -1.6491   -2.3264 H   0  0
    0.2329   -2.1855   -0.0311 H   0  0
    1.6452    1.9802   -0.4648 H   0  0
    0.0704    2.7078   -0.0936 H   0  0
    0.7089    2.7709   -1.7477 H   0  0
   -1.9270    0.1066   -1.9154 H   0  0
   -1.4152    1.6566   -2.6103 H   0  0
   -2.0539    1.5938   -0.9562 H   0  0
   -2.8088    0.2829    2.5849 H   0  0
   -3.0176   -1.4826    2.6223 H   0  0
   -3.0889   -0.5248    4.1175 H   0  0
    0.3146   -2.1814    4.2660 H   0  0
   -1.1093   -2.9498    3.5869 H   0  0
   -1.2420   -2.0501    5.1142 H   0  0
    0.6032    0.3162    4.1698 H   0  0
   -0.6584    1.3490    3.4634 H   0  0
   -0.9036    0.5573    5.0368 H   0  0
    2.0406   -5.6791    6.7373 H   0  0
    3.8077   -5.9603    6.8170 H   0  0
    2.8022   -6.8953    5.6790 H   0  0
    2.5035   -0.1990    0.2024 H   0  0
    2.8186   -1.8366   -0.4279 H   0  0
  1  2  2  0
  1  3  1  0
  2  5  1  0
  3  6  2  0
  4  5  2  0
  4  6  1  0
  5  7  1  0
  6 24  1  0
  7 21  2  0
  7 25  1  0
  8 20  1  0
  8 22  2  0
  8 26  1  0
  9 10  1  0
  9 23  1  0
 10 18  1  0
 10 20  1  0
 11 12  1  0
 11 13  1  0
 11 20  1  0
 11 23  1  0
 14 19  1  0
 15 19  1  0
 16 19  1  0
 17 25  1  0
 18 24  1  0
 19 26  1  0
  1 27  1  0
  2 28  1  0
  3 29  1  0
  4 30  1  0
  9 31  1  0
  9 32  1  0
 10 33  1  0
 12 34  1  0
 12 35  1  0
 12 36  1  0
 13 37  1  0
 13 38  1  0
 13 39  1  0
 14 40  1  0
 14 41  1  0
 14 42  1  0
 15 43  1  0
 15 44  1  0
 15 45  1  0
 16 46  1  0
 16 47  1  0
 16 48  1  0
 17 49  1  0
 17 50  1  0
 17 51  1  0
 18 52  1  0
 18 53  1  0
M  END
> <Name>
BR010421

$$$$
BR010422
  SciTegic05062102053D

 53 54  0  0  1  0            999 V2000
    5.6641   -2.5896    1.9420 C   0  0
    4.3227   -4.0177    3.3556 C   0  0
    4.5079   -1.9612    1.4796 C   0  0
    3.1665   -3.3892    2.8933 C   0  0
    5.5716   -3.6179    2.8800 C   0  0
    3.2591   -2.3609    1.9553 C   0  0
    6.7770   -4.2731    3.3623 C   0  0
   -0.6427    0.1265    1.1890 C   0  0
    0.7374   -1.2103   -1.9054 C   0  0
    0.7350   -1.2813   -0.3907 C   0  0  1  0  0  0
   -0.0455    0.8390   -1.1610 C   0  0
    0.6421    2.1658   -0.8450 C   0  0
   -1.4603    1.0650   -1.6987 C   0  0
   -2.5828   -0.6279    3.1508 C   0  0
   -0.7660   -2.0608    4.1284 C   0  0
   -0.4781    0.4325    4.0345 C   0  0
    7.5959   -5.9704    4.8255 C   0  0
    2.1505   -1.2293    0.1815 C   0  0
   -1.0752   -0.7903    3.3394 C   0  0
   -0.0220   -0.0919   -0.0341 N   0  0
    7.9245   -3.9850    2.9972 O   0  0
   -1.2798    1.1366    1.4780 O   0  0
    0.7286    0.1954   -2.2024 O   0  0
    2.1205   -1.7425    1.5001 O   0  0
    6.4875   -5.2510    4.2744 O   0  0
   -0.4665   -0.9244    2.0501 O   0  0
    6.6319   -2.2694    1.5644 H   0  0
    4.2399   -4.8178    4.0867 H   0  0
    4.5866   -1.1609    0.7488 H   0  0
    2.1964   -3.7051    3.2672 H   0  0
    1.6027   -1.6869   -2.3744 H   0  0
   -0.1745   -1.6491   -2.3264 H   0  0
    0.2329   -2.1855   -0.0311 H   0  0
    1.6452    1.9802   -0.4648 H   0  0
    0.0704    2.7078   -0.0936 H   0  0
    0.7089    2.7709   -1.7477 H   0  0
   -1.9270    0.1066   -1.9154 H   0  0
   -1.4152    1.6566   -2.6103 H   0  0
   -2.0539    1.5938   -0.9562 H   0  0
   -2.8088    0.2829    2.5849 H   0  0
   -3.0176   -1.4826    2.6223 H   0  0
   -3.0889   -0.5248    4.1175 H   0  0
    0.3146   -2.1814    4.2660 H   0  0
   -1.1093   -2.9498    3.5869 H   0  0
   -1.2420   -2.0501    5.1142 H   0  0
    0.6032    0.3162    4.1698 H   0  0
   -0.6584    1.3490    3.4634 H   0  0
   -0.9036    0.5573    5.0368 H   0  0
    7.2303   -6.7169    5.5348 H   0  0
    8.2699   -5.2730    5.3291 H   0  0
    8.1319   -6.4719    4.0162 H   0  0
    2.5035   -0.1990    0.2024 H   0  0
    2.8186   -1.8366   -0.4279 H   0  0
  1  3  1  0
  1  5  2  0
  2  4  2  0
  2  5  1  0
  3  6  2  0
  4  6  1  0
  5  7  1  0
  6 24  1  0
  7 21  2  0
  7 25  1  0
  8 20  1  0
  8 22  2  0
  8 26  1  0
  9 10  1  0
  9 23  1  0
 10 18  1  0
 10 20  1  0
 11 12  1  0
 11 13  1  0
 11 20  1  0
 11 23  1  0
 14 19  1  0
 15 19  1  0
 16 19  1  0
 17 25  1  0
 18 24  1  0
 19 26  1  0
  1 27  1  0
  2 28  1  0
  3 29  1  0
  4 30  1  0
  9 31  1  0
  9 32  1  0
 10 33  1  0
 12 34  1  0
 12 35  1  0
 12 36  1  0
 13 37  1  0
 13 38  1  0
 13 39  1  0
 14 40  1  0
 14 41  1  0
 14 42  1  0
 15 43  1  0
 15 44  1  0
 15 45  1  0
 16 46  1  0
 16 47  1  0
 16 48  1  0
 17 49  1  0
 17 50  1  0
 17 51  1  0
 18 52  1  0
 18 53  1  0
M  END
> <Name>
BR010422

$$$$
BR010423
  SciTegic05062102053D

 51 52  0  0  1  0            999 V2000
    5.5852   -3.5935    2.8785 C   0  0
    5.6156   -2.2578    2.4779 C   0  0
    4.3918   -4.3130    2.8175 C   0  0
    4.4526   -1.6415    2.0163 C   0  0
    3.2287   -3.6967    2.3558 C   0  0
    3.2591   -2.3609    1.9553 C   0  0
   -0.6427    0.1265    1.1890 C   0  0
    0.7374   -1.2103   -1.9054 C   0  0
    0.7350   -1.2813   -0.3907 C   0  0  1  0  0  0
   -0.0455    0.8390   -1.1610 C   0  0
    0.6421    2.1658   -0.8450 C   0  0
   -1.4603    1.0650   -1.6987 C   0  0
   -2.5828   -0.6279    3.1508 C   0  0
   -0.7660   -2.0608    4.1284 C   0  0
   -0.4781    0.4325    4.0345 C   0  0
    1.7951   -5.1110    1.0907 C   0  0
    2.1505   -1.2293    0.1815 C   0  0
   -1.0752   -0.7903    3.3394 C   0  0
   -0.0220   -0.0919   -0.0341 N   0  0
   -1.2798    1.1366    1.4780 O   0  0
    0.7286    0.1954   -2.2024 O   0  0
    2.0692   -4.4098    2.3021 O   0  0
    2.1205   -1.7425    1.5001 O   0  0
   -0.4665   -0.9244    2.0501 O   0  0
    6.4911   -4.0736    3.2379 H   0  0
    6.5446   -1.6977    2.5256 H   0  0
    4.3748   -5.3534    3.1309 H   0  0
    4.4829   -0.6002    1.7074 H   0  0
    1.6027   -1.6869   -2.3744 H   0  0
   -0.1745   -1.6491   -2.3264 H   0  0
    0.2329   -2.1855   -0.0311 H   0  0
    1.6452    1.9802   -0.4648 H   0  0
    0.0704    2.7078   -0.0936 H   0  0
    0.7089    2.7709   -1.7477 H   0  0
   -1.9270    0.1066   -1.9154 H   0  0
   -1.4152    1.6566   -2.6103 H   0  0
   -2.0539    1.5938   -0.9562 H   0  0
   -2.8088    0.2829    2.5849 H   0  0
   -3.0176   -1.4826    2.6223 H   0  0
   -3.0889   -0.5248    4.1175 H   0  0
    0.3146   -2.1814    4.2660 H   0  0
   -1.1093   -2.9498    3.5869 H   0  0
   -1.2420   -2.0501    5.1142 H   0  0
    0.6032    0.3162    4.1698 H   0  0
   -0.6584    1.3490    3.4634 H   0  0
   -0.9036    0.5573    5.0368 H   0  0
    0.8418   -5.6374    1.1813 H   0  0
    2.5994   -5.8235    0.8911 H   0  0
    1.7354   -4.3925    0.2698 H   0  0
    2.5035   -0.1990    0.2024 H   0  0
    2.8186   -1.8366   -0.4279 H   0  0
  1  2  2  0
  1  3  1  0
  2  4  1  0
  3  5  2  0
  4  6  2  0
  5  6  1  0
  5 22  1  0
  6 23  1  0
  7 19  1  0
  7 20  2  0
  7 24  1  0
  8  9  1  0
  8 21  1  0
  9 17  1  0
  9 19  1  0
 10 11  1  0
 10 12  1  0
 10 19  1  0
 10 21  1  0
 13 18  1  0
 14 18  1  0
 15 18  1  0
 16 22  1  0
 17 23  1  0
 18 24  1  0
  1 25  1  0
  2 26  1  0
  3 27  1  0
  4 28  1  0
  8 29  1  0
  8 30  1  0
  9 31  1  0
 11 32  1  0
 11 33  1  0
 11 34  1  0
 12 35  1  0
 12 36  1  0
 12 37  1  0
 13 38  1  0
 13 39  1  0
 13 40  1  0
 14 41  1  0
 14 42  1  0
 14 43  1  0
 15 44  1  0
 15 45  1  0
 15 46  1  0
 16 47  1  0
 16 48  1  0
 16 49  1  0
 17 50  1  0
 17 51  1  0
M  END
> <Name>
BR010423

$$$$
BR010424
  SciTegic05062102053D

 51 52  0  0  1  0            999 V2000
    5.6644   -2.5871    1.9429 C   0  0
    5.5728   -3.6136    2.8828 C   0  0
    4.5076   -1.9607    1.4792 C   0  0
    3.1674   -3.3876    2.8951 C   0  0
    4.3243   -4.0139    3.3589 C   0  0
    3.2591   -2.3609    1.9553 C   0  0
   -0.6427    0.1265    1.1890 C   0  0
    0.7374   -1.2103   -1.9054 C   0  0
    0.7350   -1.2813   -0.3907 C   0  0  1  0  0  0
   -0.0455    0.8390   -1.1610 C   0  0
    0.6421    2.1658   -0.8450 C   0  0
   -1.4603    1.0650   -1.6987 C   0  0
   -2.5828   -0.6279    3.1508 C   0  0
   -0.7660   -2.0608    4.1284 C   0  0
   -0.4781    0.4325    4.0345 C   0  0
    2.9275   -5.3761    4.7188 C   0  0
    2.1505   -1.2293    0.1815 C   0  0
   -1.0752   -0.7903    3.3394 C   0  0
   -0.0220   -0.0919   -0.0341 N   0  0
   -1.2798    1.1366    1.4780 O   0  0
    0.7286    0.1954   -2.2024 O   0  0
    4.2350   -5.0170    4.2745 O   0  0
    2.1205   -1.7425    1.5001 O   0  0
   -0.4665   -0.9244    2.0501 O   0  0
    6.6366   -2.2754    1.5724 H   0  0
    6.4773   -4.0982    3.2402 H   0  0
    4.5851   -1.1607    0.7480 H   0  0
    2.1944   -3.6998    3.2659 H   0  0
    1.6027   -1.6869   -2.3744 H   0  0
   -0.1745   -1.6491   -2.3264 H   0  0
    0.2329   -2.1855   -0.0311 H   0  0
    1.6452    1.9802   -0.4648 H   0  0
    0.0704    2.7078   -0.0936 H   0  0
    0.7089    2.7709   -1.7477 H   0  0
   -1.9270    0.1066   -1.9154 H   0  0
   -1.4152    1.6566   -2.6103 H   0  0
   -2.0539    1.5938   -0.9562 H   0  0
   -2.8088    0.2829    2.5849 H   0  0
   -3.0176   -1.4826    2.6223 H   0  0
   -3.0889   -0.5248    4.1175 H   0  0
    0.3146   -2.1814    4.2660 H   0  0
   -1.1093   -2.9498    3.5869 H   0  0
   -1.2420   -2.0501    5.1142 H   0  0
    0.6032    0.3162    4.1698 H   0  0
   -0.6584    1.3490    3.4634 H   0  0
   -0.9036    0.5573    5.0368 H   0  0
    2.9994   -6.1880    5.4466 H   0  0
    2.3249   -5.6917    3.8633 H   0  0
    2.4611   -4.5077    5.1899 H   0  0
    2.5035   -0.1990    0.2024 H   0  0
    2.8186   -1.8366   -0.4279 H   0  0
  1  2  2  0
  1  3  1  0
  2  5  1  0
  3  6  2  0
  4  5  2  0
  4  6  1  0
  5 22  1  0
  6 23  1  0
  7 19  1  0
  7 20  2  0
  7 24  1  0
  8  9  1  0
  8 21  1  0
  9 17  1  0
  9 19  1  0
 10 11  1  0
 10 12  1  0
 10 19  1  0
 10 21  1  0
 13 18  1  0
 14 18  1  0
 15 18  1  0
 16 22  1  0
 17 23  1  0
 18 24  1  0
  1 25  1  0
  2 26  1  0
  3 27  1  0
  4 28  1  0
  8 29  1  0
  8 30  1  0
  9 31  1  0
 11 32  1  0
 11 33  1  0
 11 34  1  0
 12 35  1  0
 12 36  1  0
 12 37  1  0
 13 38  1  0
 13 39  1  0
 13 40  1  0
 14 41  1  0
 14 42  1  0
 14 43  1  0
 15 44  1  0
 15 45  1  0
 15 46  1  0
 16 47  1  0
 16 48  1  0
 16 49  1  0
 17 50  1  0
 17 51  1  0
M  END
> <Name>
BR010424

$$$$
BR010425
  SciTegic05062102053D

 51 52  0  0  1  0            999 V2000
    4.3231   -4.0171    3.3559 C   0  0
    5.6643   -2.5888    1.9422 C   0  0
    3.1668   -3.3891    2.8934 C   0  0
    4.5078   -1.9608    1.4796 C   0  0
    5.5719   -3.6169    2.8803 C   0  0
    3.2591   -2.3609    1.9553 C   0  0
   -0.6427    0.1265    1.1890 C   0  0
    0.7374   -1.2103   -1.9054 C   0  0
    0.7350   -1.2813   -0.3907 C   0  0  1  0  0  0
   -0.0455    0.8390   -1.1610 C   0  0
    0.6421    2.1658   -0.8450 C   0  0
   -1.4603    1.0650   -1.6987 C   0  0
   -2.5828   -0.6279    3.1508 C   0  0
   -0.7660   -2.0608    4.1284 C   0  0
   -0.4781    0.4325    4.0345 C   0  0
    6.5342   -5.2709    4.2926 C   0  0
    2.1505   -1.2293    0.1815 C   0  0
   -1.0752   -0.7903    3.3394 C   0  0
   -0.0220   -0.0919   -0.0341 N   0  0
   -1.2798    1.1366    1.4780 O   0  0
    0.7286    0.1954   -2.2024 O   0  0
    6.7006   -4.2284    3.3326 O   0  0
    2.1205   -1.7425    1.5001 O   0  0
   -0.4665   -0.9244    2.0501 O   0  0
    4.2451   -4.8157    4.0885 H   0  0
    6.6345   -2.2725    1.5689 H   0  0
    2.1967   -3.7058    3.2664 H   0  0
    4.5859   -1.1604    0.7490 H   0  0
    1.6027   -1.6869   -2.3744 H   0  0
   -0.1745   -1.6491   -2.3264 H   0  0
    0.2329   -2.1855   -0.0311 H   0  0
    1.6452    1.9802   -0.4648 H   0  0
    0.0704    2.7078   -0.0936 H   0  0
    0.7089    2.7709   -1.7477 H   0  0
   -1.9270    0.1066   -1.9154 H   0  0
   -1.4152    1.6566   -2.6103 H   0  0
   -2.0539    1.5938   -0.9562 H   0  0
   -2.8088    0.2829    2.5849 H   0  0
   -3.0176   -1.4826    2.6223 H   0  0
   -3.0889   -0.5248    4.1175 H   0  0
    0.3146   -2.1814    4.2660 H   0  0
   -1.1093   -2.9498    3.5869 H   0  0
   -1.2420   -2.0501    5.1142 H   0  0
    0.6032    0.3162    4.1698 H   0  0
   -0.6584    1.3490    3.4634 H   0  0
   -0.9036    0.5573    5.0368 H   0  0
    7.5122   -5.6727    4.5684 H   0  0
    5.9099   -6.0615    3.8687 H   0  0
    6.0472   -4.8616    5.1809 H   0  0
    2.5035   -0.1990    0.2024 H   0  0
    2.8186   -1.8366   -0.4279 H   0  0
  1  3  1  0
  1  5  2  0
  2  4  2  0
  2  5  1  0
  3  6  2  0
  4  6  1  0
  5 22  1  0
  6 23  1  0
  7 19  1  0
  7 20  2  0
  7 24  1  0
  8  9  1  0
  8 21  1  0
  9 17  1  0
  9 19  1  0
 10 11  1  0
 10 12  1  0
 10 19  1  0
 10 21  1  0
 13 18  1  0
 14 18  1  0
 15 18  1  0
 16 22  1  0
 17 23  1  0
 18 24  1  0
  1 25  1  0
  2 26  1  0
  3 27  1  0
  4 28  1  0
  8 29  1  0
  8 30  1  0
  9 31  1  0
 11 32  1  0
 11 33  1  0
 11 34  1  0
 12 35  1  0
 12 36  1  0
 12 37  1  0
 13 38  1  0
 13 39  1  0
 13 40  1  0
 14 41  1  0
 14 42  1  0
 14 43  1  0
 15 44  1  0
 15 45  1  0
 15 46  1  0
 16 47  1  0
 16 48  1  0
 16 49  1  0
 17 50  1  0
 17 51  1  0
M  END
> <Name>
BR010425

$$$$
BR010426
  SciTegic05062102053D

 49 50  0  0  1  0            999 V2000
    5.7303   -1.7926    3.5730 C   0  0
    5.2026   -0.5880    3.1083 C   0  0
    5.0481   -2.9875    3.3438 C   0  0
    3.9926   -0.5783    2.4144 C   0  0
    3.8381   -2.9778    2.6500 C   0  0
    3.3103   -1.7732    2.1852 C   0  0
    3.1303   -4.2495    2.4171 C   0  0
   -0.6427    0.1265    1.1890 C   0  0
    0.7374   -1.2103   -1.9054 C   0  0
    0.7350   -1.2813   -0.3907 C   0  0  1  0  0  0
   -0.0455    0.8390   -1.1610 C   0  0
    0.6421    2.1658   -0.8450 C   0  0
   -1.4603    1.0650   -1.6987 C   0  0
   -2.5828   -0.6279    3.1508 C   0  0
   -0.7660   -2.0608    4.1284 C   0  0
   -0.4781    0.4325    4.0345 C   0  0
    2.1505   -1.2293    0.1815 C   0  0
   -1.0752   -0.7903    3.3394 C   0  0
   -0.0220   -0.0919   -0.0341 N   0  0
    3.6529   -5.3378    2.8627 O   0  5
    2.0147   -4.2272    1.7760 O   0  0
   -1.2798    1.1366    1.4780 O   0  0
    0.7286    0.1954   -2.2024 O   0  0
    2.1205   -1.7425    1.5001 O   0  0
   -0.4665   -0.9244    2.0501 O   0  0
    6.6722   -1.8001    4.1141 H   0  0
    5.7337    0.3421    3.2872 H   0  0
    5.4685   -3.9202    3.7114 H   0  0
    3.5874    0.3639    2.0556 H   0  0
    1.6027   -1.6869   -2.3744 H   0  0
   -0.1745   -1.6491   -2.3264 H   0  0
    0.2329   -2.1855   -0.0311 H   0  0
    1.6452    1.9802   -0.4648 H   0  0
    0.0704    2.7078   -0.0936 H   0  0
    0.7089    2.7709   -1.7477 H   0  0
   -1.9270    0.1066   -1.9154 H   0  0
   -1.4152    1.6566   -2.6103 H   0  0
   -2.0539    1.5938   -0.9562 H   0  0
   -2.8088    0.2829    2.5849 H   0  0
   -3.0176   -1.4826    2.6223 H   0  0
   -3.0889   -0.5248    4.1175 H   0  0
    0.3146   -2.1814    4.2660 H   0  0
   -1.1093   -2.9498    3.5869 H   0  0
   -1.2420   -2.0501    5.1142 H   0  0
    0.6032    0.3162    4.1698 H   0  0
   -0.6584    1.3490    3.4634 H   0  0
   -0.9036    0.5573    5.0368 H   0  0
    2.5035   -0.1990    0.2024 H   0  0
    2.8186   -1.8366   -0.4279 H   0  0
  1  2  2  0
  1  3  1  0
  2  4  1  0
  3  5  2  0
  4  6  2  0
  5  6  1  0
  5  7  1  0
  6 24  1  0
  7 20  1  0
  7 21  2  0
  8 19  1  0
  8 22  2  0
  8 25  1  0
  9 10  1  0
  9 23  1  0
 10 17  1  0
 10 19  1  0
 11 12  1  0
 11 13  1  0
 11 19  1  0
 11 23  1  0
 14 18  1  0
 15 18  1  0
 16 18  1  0
 17 24  1  0
 18 25  1  0
  1 26  1  0
  2 27  1  0
  3 28  1  0
  4 29  1  0
  9 30  1  0
  9 31  1  0
 10 32  1  0
 12 33  1  0
 12 34  1  0
 12 35  1  0
 13 36  1  0
 13 37  1  0
 13 38  1  0
 14 39  1  0
 14 40  1  0
 14 41  1  0
 15 42  1  0
 15 43  1  0
 15 44  1  0
 16 45  1  0
 16 46  1  0
 16 47  1  0
 17 48  1  0
 17 49  1  0
M  CHG  1  20  -1
M  END
> <Name>
BR010426

$$$$
BR010427
  SciTegic05062102053D

 49 50  0  0  1  0            999 V2000
    5.6642   -2.5899    1.9413 C   0  0
    5.5717   -3.6184    2.8789 C   0  0
    4.5078   -1.9611    1.4795 C   0  0
    3.1666   -3.3896    2.8929 C   0  0
    4.3230   -4.0183    3.3547 C   0  0
    3.2591   -2.3609    1.9553 C   0  0
    4.2253   -5.1039    4.3434 C   0  0
   -0.6427    0.1265    1.1890 C   0  0
    0.7374   -1.2103   -1.9054 C   0  0
    0.7350   -1.2813   -0.3907 C   0  0  1  0  0  0
   -0.0455    0.8390   -1.1610 C   0  0
    0.6421    2.1658   -0.8450 C   0  0
   -1.4603    1.0650   -1.6987 C   0  0
   -2.5828   -0.6279    3.1508 C   0  0
   -0.7660   -2.0608    4.1284 C   0  0
   -0.4781    0.4325    4.0345 C   0  0
    2.1505   -1.2293    0.1815 C   0  0
   -1.0752   -0.7903    3.3394 C   0  0
   -0.0220   -0.0919   -0.0341 N   0  0
    3.0603   -5.4539    4.7668 O   0  5
    5.3079   -5.6685    4.7533 O   0  0
   -1.2798    1.1366    1.4780 O   0  0
    0.7286    0.1954   -2.2024 O   0  0
    2.1205   -1.7425    1.5001 O   0  0
   -0.4665   -0.9244    2.0501 O   0  0
    6.6364   -2.2787    1.5708 H   0  0
    6.4785   -4.1017    3.2329 H   0  0
    4.5864   -1.1604    0.7491 H   0  0
    2.1907   -3.6980    3.2606 H   0  0
    1.6027   -1.6869   -2.3744 H   0  0
   -0.1745   -1.6491   -2.3264 H   0  0
    0.2329   -2.1855   -0.0311 H   0  0
    1.6452    1.9802   -0.4648 H   0  0
    0.0704    2.7078   -0.0936 H   0  0
    0.7089    2.7709   -1.7477 H   0  0
   -1.9270    0.1066   -1.9154 H   0  0
   -1.4152    1.6566   -2.6103 H   0  0
   -2.0539    1.5938   -0.9562 H   0  0
   -2.8088    0.2829    2.5849 H   0  0
   -3.0176   -1.4826    2.6223 H   0  0
   -3.0889   -0.5248    4.1175 H   0  0
    0.3146   -2.1814    4.2660 H   0  0
   -1.1093   -2.9498    3.5869 H   0  0
   -1.2420   -2.0501    5.1142 H   0  0
    0.6032    0.3162    4.1698 H   0  0
   -0.6584    1.3490    3.4634 H   0  0
   -0.9036    0.5573    5.0368 H   0  0
    2.5035   -0.1990    0.2024 H   0  0
    2.8186   -1.8366   -0.4279 H   0  0
  1  2  2  0
  1  3  1  0
  2  5  1  0
  3  6  2  0
  4  5  2  0
  4  6  1  0
  5  7  1  0
  6 24  1  0
  7 20  1  0
  7 21  2  0
  8 19  1  0
  8 22  2  0
  8 25  1  0
  9 10  1  0
  9 23  1  0
 10 17  1  0
 10 19  1  0
 11 12  1  0
 11 13  1  0
 11 19  1  0
 11 23  1  0
 14 18  1  0
 15 18  1  0
 16 18  1  0
 17 24  1  0
 18 25  1  0
  1 26  1  0
  2 27  1  0
  3 28  1  0
  4 29  1  0
  9 30  1  0
  9 31  1  0
 10 32  1  0
 12 33  1  0
 12 34  1  0
 12 35  1  0
 13 36  1  0
 13 37  1  0
 13 38  1  0
 14 39  1  0
 14 40  1  0
 14 41  1  0
 15 42  1  0
 15 43  1  0
 15 44  1  0
 16 45  1  0
 16 46  1  0
 16 47  1  0
 17 48  1  0
 17 49  1  0
M  CHG  1  20  -1
M  END
> <Name>
BR010427

$$$$
BR010428
  SciTegic05062102053D

 49 50  0  0  1  0            999 V2000
    5.6642   -2.5887    1.9417 C   0  0
    4.3235   -4.0170    3.3558 C   0  0
    4.5077   -1.9608    1.4793 C   0  0
    3.1670   -3.3890    2.8935 C   0  0
    5.5722   -3.6169    2.8799 C   0  0
    3.2591   -2.3609    1.9553 C   0  0
    6.7924   -4.2794    3.3678 C   0  0
   -0.6427    0.1265    1.1890 C   0  0
    0.7374   -1.2103   -1.9054 C   0  0
    0.7350   -1.2813   -0.3907 C   0  0  1  0  0  0
   -0.0455    0.8390   -1.1610 C   0  0
    0.6421    2.1658   -0.8450 C   0  0
   -1.4603    1.0650   -1.6987 C   0  0
   -2.5828   -0.6279    3.1508 C   0  0
   -0.7660   -2.0608    4.1284 C   0  0
   -0.4781    0.4325    4.0345 C   0  0
    2.1505   -1.2293    0.1815 C   0  0
   -1.0752   -0.7903    3.3394 C   0  0
   -0.0220   -0.0919   -0.0341 N   0  0
    6.6798   -5.2256    4.2343 O   0  5
    7.9329   -3.8911    2.9126 O   0  0
   -1.2798    1.1366    1.4780 O   0  0
    0.7286    0.1954   -2.2024 O   0  0
    2.1205   -1.7425    1.5001 O   0  0
   -0.4665   -0.9244    2.0501 O   0  0
    6.6323   -2.2692    1.5646 H   0  0
    4.2409   -4.8170    4.0870 H   0  0
    4.5853   -1.1605    0.7485 H   0  0
    2.1974   -3.7056    3.2683 H   0  0
    1.6027   -1.6869   -2.3744 H   0  0
   -0.1745   -1.6491   -2.3264 H   0  0
    0.2329   -2.1855   -0.0311 H   0  0
    1.6452    1.9802   -0.4648 H   0  0
    0.0704    2.7078   -0.0936 H   0  0
    0.7089    2.7709   -1.7477 H   0  0
   -1.9270    0.1066   -1.9154 H   0  0
   -1.4152    1.6566   -2.6103 H   0  0
   -2.0539    1.5938   -0.9562 H   0  0
   -2.8088    0.2829    2.5849 H   0  0
   -3.0176   -1.4826    2.6223 H   0  0
   -3.0889   -0.5248    4.1175 H   0  0
    0.3146   -2.1814    4.2660 H   0  0
   -1.1093   -2.9498    3.5869 H   0  0
   -1.2420   -2.0501    5.1142 H   0  0
    0.6032    0.3162    4.1698 H   0  0
   -0.6584    1.3490    3.4634 H   0  0
   -0.9036    0.5573    5.0368 H   0  0
    2.5035   -0.1990    0.2024 H   0  0
    2.8186   -1.8366   -0.4279 H   0  0
  1  3  1  0
  1  5  2  0
  2  4  2  0
  2  5  1  0
  3  6  2  0
  4  6  1  0
  5  7  1  0
  6 24  1  0
  7 20  1  0
  7 21  2  0
  8 19  1  0
  8 22  2  0
  8 25  1  0
  9 10  1  0
  9 23  1  0
 10 17  1  0
 10 19  1  0
 11 12  1  0
 11 13  1  0
 11 19  1  0
 11 23  1  0
 14 18  1  0
 15 18  1  0
 16 18  1  0
 17 24  1  0
 18 25  1  0
  1 26  1  0
  2 27  1  0
  3 28  1  0
  4 29  1  0
  9 30  1  0
  9 31  1  0
 10 32  1  0
 12 33  1  0
 12 34  1  0
 12 35  1  0
 13 36  1  0
 13 37  1  0
 13 38  1  0
 14 39  1  0
 14 40  1  0
 14 41  1  0
 15 42  1  0
 15 43  1  0
 15 44  1  0
 16 45  1  0
 16 46  1  0
 16 47  1  0
 17 48  1  0
 17 49  1  0
M  CHG  1  20  -1
M  END
> <Name>
BR010428

$$$$
BR010429
  SciTegic05062102053D

 28 27  0  0  1  0            999 V2000
   -3.1007   -0.8001    5.4477 C   0  0
   -2.3348    2.7236    6.3135 C   0  0
   -2.3508    5.5429    6.7621 C   0  0
   -2.0962    4.9703    9.1945 C   0  0
   -0.3068    4.3102    7.5604 C   0  0
   -4.2102    1.1743    4.1672 C   0  0
   -3.0826    0.6951    5.0780 C   0  0  1  0  0  0
   -1.8060    4.5248    7.7629 C   0  0
   -3.0285    1.5333    6.2535 N   0  0
   -3.6068   -1.5555    4.5674 O   0  5
   -2.6014   -1.1067    6.5657 O   0  0
   -1.6851    3.2211    5.3998 O   0  0
   -5.4849    0.9344    4.7531 O   0  0
   -2.4755    3.2806    7.5554 O   0  0
   -2.1445    5.2268    5.7333 H   0  0
   -3.4313    5.6799    6.8738 H   0  0
   -1.8635    6.5163    6.8900 H   0  0
   -1.7071    4.2427    9.9160 H   0  0
   -3.1759    5.0339    9.3722 H   0  0
   -1.6509    5.9464    9.4121 H   0  0
    0.0842    3.5800    8.2781 H   0  0
   -0.0832    3.9548    6.5493 H   0  0
    0.2468    5.2403    7.7330 H   0  0
   -4.1261    2.2449    3.9522 H   0  0
   -4.1848    0.6388    3.2121 H   0  0
   -2.1338    0.8578    4.5507 H   0  0
   -3.5296    1.2287    7.0823 H   0  0
   -5.5526   -0.0239    4.8892 H   0  0
  1  7  1  0
  1 10  1  0
  1 11  2  0
  2  9  1  0
  2 12  2  0
  2 14  1  0
  3  8  1  0
  4  8  1  0
  5  8  1  0
  6  7  1  0
  6 13  1  0
  7  9  1  0
  8 14  1  0
  3 15  1  0
  3 16  1  0
  3 17  1  0
  4 18  1  0
  4 19  1  0
  4 20  1  0
  5 21  1  0
  5 22  1  0
  5 23  1  0
  6 24  1  0
  6 25  1  0
  7 26  1  0
  9 27  1  0
 13 28  1  0
M  CHG  1  10  -1
M  END
> <Name>
BR010429

$$$$
BR010430
  SciTegic05062102053D

 28 27  0  0  1  0            999 V2000
   -3.0310    1.1654    6.5441 C   0  0
   -1.2959    0.2301    3.4066 C   0  0
    0.8671    1.0634    1.7402 C   0  0
    1.8550   -1.1980    2.2081 C   0  0
   -0.3470   -1.0181    1.0136 C   0  0
   -4.2452   -0.2249    4.7162 C   0  0
   -3.0820    0.6952    5.0782 C   0  0  2  0  0  0
    0.5622   -0.3965    2.0727 C   0  0
   -1.8302    0.0997    4.6711 N   0  0
   -1.8699    1.4261    6.9748 O   0  5
   -4.1387    1.2538    7.1428 O   0  0
   -1.7979    0.8543    2.4776 O   0  0
   -4.2048   -1.4305    5.4717 O   0  0
   -0.1082   -0.4451    3.3327 O   0  0
   -0.0583    1.6422    1.6421 H   0  0
    1.4897    1.5309    2.5100 H   0  0
    1.3862    1.1452    0.7784 H   0  0
    1.6410   -2.2461    2.4467 H   0  0
    2.4685   -0.8133    3.0309 H   0  0
    2.4485   -1.1659    1.2887 H   0  0
   -0.5658   -2.0653    1.2519 H   0  0
   -1.2953   -0.4776    0.9286 H   0  0
    0.1420   -1.0198    0.0327 H   0  0
   -5.2113    0.2597    4.8925 H   0  0
   -4.1988   -0.5024    3.6576 H   0  0
   -3.1841    1.6085    4.4781 H   0  0
   -1.3147   -0.4459    5.3549 H   0  0
   -4.2617   -1.1752    6.4061 H   0  0
  1  7  1  0
  1 10  1  0
  1 11  2  0
  2  9  1  0
  2 12  2  0
  2 14  1  0
  3  8  1  0
  4  8  1  0
  5  8  1  0
  6  7  1  0
  6 13  1  0
  7  9  1  0
  8 14  1  0
  3 15  1  0
  3 16  1  0
  3 17  1  0
  4 18  1  0
  4 19  1  0
  4 20  1  0
  5 21  1  0
  5 22  1  0
  5 23  1  0
  6 24  1  0
  6 25  1  0
  7 26  1  0
  9 27  1  0
 13 28  1  0
M  CHG  1  10  -1
M  END
> <Name>
BR010430

$$$$
BR010431
  SciTegic05062102053D

 32 31  0  0  1  0            999 V2000
    0.6433   -0.0908   -2.6114 C   0  0
    1.5403   -0.1106   -6.2097 C   0  0
    2.6919    0.3499   -8.7810 C   0  0
    3.4076   -2.0559   -8.6863 C   0  0
    0.9641   -1.4759   -8.6570 C   0  0
   -0.4858    0.0021   -0.5335 C   0  0
    1.6085    1.9771   -3.6654 C   0  0
    0.9195    0.6404   -3.9182 C   0  0  1  0  0  0
    2.3645   -1.0376   -8.2311 C   0  0
    1.6893   -0.1591   -4.8377 N   0  0
    1.1059   -1.1996   -2.3628 O   0  0
    0.7501    0.6039   -6.8177 O   0  0
    2.8528    1.7703   -3.0064 O   0  0
   -0.1687    0.6242   -1.7831 O   0  0
    2.4101   -0.9833   -6.8008 O   0  0
    1.9455    1.0838   -8.4565 H   0  0
    3.6797    0.6907   -8.4540 H   0  0
    2.6707    0.3512   -9.8769 H   0  0
    3.1767   -3.0529   -8.2940 H   0  0
    4.4007   -1.7956   -8.3025 H   0  0
    3.4630   -2.1171   -9.7780 H   0  0
    0.7290   -2.4712   -8.2626 H   0  0
    0.1985   -0.7759   -8.3070 H   0  0
    0.8943   -1.5513   -9.7482 H   0  0
   -1.1381    0.6596    0.0465 H   0  0
    0.4354   -0.1958    0.0202 H   0  0
   -1.0021   -0.9412   -0.7270 H   0  0
    1.8053    2.4998   -4.6073 H   0  0
    0.9885    2.6194   -3.0308 H   0  0
   -0.0504    0.8056   -4.4005 H   0  0
    2.3826   -0.7962   -4.4537 H   0  0
    3.2453    2.6473   -2.8713 H   0  0
  1  8  1  0
  1 11  2  0
  1 14  1  0
  2 10  1  0
  2 12  2  0
  2 15  1  0
  3  9  1  0
  4  9  1  0
  5  9  1  0
  6 14  1  0
  7  8  1  0
  7 13  1  0
  8 10  1  0
  9 15  1  0
  3 16  1  0
  3 17  1  0
  3 18  1  0
  4 19  1  0
  4 20  1  0
  4 21  1  0
  5 22  1  0
  5 23  1  0
  5 24  1  0
  6 25  1  0
  6 26  1  0
  6 27  1  0
  7 28  1  0
  7 29  1  0
  8 30  1  0
 10 31  1  0
 13 32  1  0
M  END
> <Name>
BR010431

$$$$
BR010432
  SciTegic05062102053D

 32 31  0  0  1  0            999 V2000
    0.9125   -0.0520   -2.5616 C   0  0
    0.8990    3.0295   -4.6191 C   0  0
   -0.3669    5.5803   -4.8213 C   0  0
    1.9345    6.5397   -4.5182 C   0  0
    1.4315    5.1037   -6.5164 C   0  0
    0.3622   -2.0363   -1.3950 C   0  0
    1.7462   -0.1434   -4.9312 C   0  0
    0.9189    0.6402   -3.9179 C   0  0  2  0  0  0
    1.1281    5.3523   -5.0395 C   0  0
    1.3755    2.0042   -3.8262 N   0  0
    1.3373    0.4839   -1.5430 O   0  0
    0.0416    2.9201   -5.4895 O   0  0
    3.0897   -0.2650   -4.4779 O   0  0
    0.3961   -1.3111   -2.6287 O   0  0
    1.5270    4.1981   -4.2916 O   0  0
   -0.9492    4.7301   -5.1943 H   0  0
   -0.6025    5.7251   -3.7619 H   0  0
   -0.7135    6.4595   -5.3763 H   0  0
    3.0078    6.3805   -4.6727 H   0  0
    1.7932    6.6636   -3.4384 H   0  0
    1.6474    7.4723   -5.0146 H   0  0
    2.5039    4.9401   -6.6731 H   0  0
    0.8896    4.2324   -6.8983 H   0  0
    1.1599    5.9758   -7.1221 H   0  0
   -0.0682   -3.0262   -1.5651 H   0  0
   -0.2376   -1.4870   -0.6649 H   0  0
    1.3820   -2.1446   -1.0182 H   0  0
    1.3417   -1.1514   -5.0703 H   0  0
    1.7576    0.3668   -5.9004 H   0  0
   -0.1236    0.6961   -4.2505 H   0  0
    2.0903    2.2245   -3.1373 H   0  0
    3.5677   -0.7684   -5.1558 H   0  0
  1  8  1  0
  1 11  2  0
  1 14  1  0
  2 10  1  0
  2 12  2  0
  2 15  1  0
  3  9  1  0
  4  9  1  0
  5  9  1  0
  6 14  1  0
  7  8  1  0
  7 13  1  0
  8 10  1  0
  9 15  1  0
  3 16  1  0
  3 17  1  0
  3 18  1  0
  4 19  1  0
  4 20  1  0
  4 21  1  0
  5 22  1  0
  5 23  1  0
  5 24  1  0
  6 25  1  0
  6 26  1  0
  6 27  1  0
  7 28  1  0
  7 29  1  0
  8 30  1  0
 10 31  1  0
 13 32  1  0
M  END
> <Name>
BR010432

$$$$
BR010433
  SciTegic05062102053D

 39 39  0  0  1  0            999 V2000
   -0.0170    0.9044    0.7000 C   0  0
   -0.2459   -0.5115    3.6334 C   0  0
   -2.4195    1.0706    1.1615 C   0  0
   -1.0530    1.0110    1.8030 C   0  0  1  0  0  0
   -2.2589   -1.0072    2.1876 C   0  0
   -1.8398   -2.3826    1.6717 C   0  0
   -3.3201   -1.1270    3.2830 C   0  0
    2.4059   -1.0962    4.5315 C   0  0
    2.6424    1.3824    4.8631 C   0  0
    0.9255    0.1032    6.1762 C   0  0
    0.8476    2.0412   -1.1825 C   0  0
    1.6695    0.2054    4.8454 C   0  0
   -1.1230   -0.1908    2.6060 N   0  0
    0.7479   -0.0414    0.5675 O   0  0
   -0.3092   -1.5333    4.3127 O   0  0
   -2.8483   -0.2990    1.0718 O   0  0
   -0.0817    2.0104   -0.0946 O   0  0
    0.7145    0.4506    3.8068 O   0  0
   -3.1348    1.6033    1.7980 H   0  0
   -2.4280    1.5220    0.1651 H   0  0
   -0.8345    1.9169    2.3954 H   0  0
   -1.0855   -2.2712    0.8946 H   0  0
   -2.7037   -2.9007    1.2585 H   0  0
   -1.4266   -2.9728    2.4881 H   0  0
   -3.5999   -0.1353    3.6316 H   0  0
   -2.9225   -1.7017    4.1165 H   0  0
   -4.1997   -1.6299    2.8871 H   0  0
    1.7110   -1.9435    4.5179 H   0  0
    2.9148   -1.0483    3.5633 H   0  0
    3.1510   -1.3199    5.3035 H   0  0
    2.1183    2.3184    5.0880 H   0  0
    3.1087    1.5181    3.8806 H   0  0
    3.4340    1.2412    5.6061 H   0  0
    0.3973    1.0366    6.4016 H   0  0
    0.1964   -0.7135    6.1689 H   0  0
    1.6261   -0.0629    7.0025 H   0  0
    0.7124    2.9637   -1.7523 H   0  0
    0.6836    1.1744   -1.8277 H   0  0
    1.8640    2.0082   -0.7828 H   0  0
  1  4  1  0
  1 14  2  0
  1 17  1  0
  2 13  1  0
  2 15  2  0
  2 18  1  0
  3  4  1  0
  3 16  1  0
  4 13  1  0
  5  6  1  0
  5  7  1  0
  5 13  1  0
  5 16  1  0
  8 12  1  0
  9 12  1  0
 10 12  1  0
 11 17  1  0
 12 18  1  0
  3 19  1  0
  3 20  1  0
  4 21  1  0
  6 22  1  0
  6 23  1  0
  6 24  1  0
  7 25  1  0
  7 26  1  0
  7 27  1  0
  8 28  1  0
  8 29  1  0
  8 30  1  0
  9 31  1  0
  9 32  1  0
  9 33  1  0
 10 34  1  0
 10 35  1  0
 10 36  1  0
 11 37  1  0
 11 38  1  0
 11 39  1  0
M  END
> <Name>
BR010433

$$$$
BR010434
  SciTegic05062102053D

 39 39  0  0  1  0            999 V2000
    0.0017   -0.2477   -1.0706 C   0  0
   -3.1312   -0.6279   -1.4171 C   0  0
   -0.0594   -2.0954   -2.7306 C   0  0
   -0.7542   -1.4473   -1.5568 C   0  0  2  0  0  0
   -1.8793   -0.9351   -3.5910 C   0  0
   -2.8409   -1.9165   -4.2647 C   0  0
   -2.0318    0.4711   -4.1671 C   0  0
   -5.2655   -1.3694    0.3368 C   0  0
   -3.6972   -0.7622    2.2026 C   0  0
   -4.4265    0.9929    0.5607 C   0  0
    2.0292    0.4095   -0.0501 C   0  0
   -4.0909   -0.4853    0.7533 C   0  0
   -1.9885   -0.9615   -2.1338 N   0  0
   -0.4165    0.9001   -1.1399 O   0  0
   -4.1745   -0.2160   -1.9187 O   0  0
   -0.5292   -1.3707   -3.8812 O   0  0
    1.2000   -0.6426   -0.5537 O   0  0
   -2.9638   -0.8078   -0.0691 O   0  0
    1.0325   -2.0461   -2.6892 H   0  0
   -0.3639   -3.1414   -2.8471 H   0  0
   -0.9221   -2.1268   -0.7169 H   0  0
   -2.7115   -2.9081   -3.8365 H   0  0
   -2.6346   -1.9567   -5.3319 H   0  0
   -3.8665   -1.5892   -4.1091 H   0  0
   -1.3386    1.1498   -3.6727 H   0  0
   -3.0495    0.8253   -4.0115 H   0  0
   -1.8178    0.4579   -5.2346 H   0  0
   -5.5511   -1.1736   -0.7029 H   0  0
   -5.0253   -2.4329    0.4371 H   0  0
   -6.1511   -1.1556    0.9462 H   0  0
   -2.8548   -0.1300    2.5056 H   0  0
   -3.3646   -1.7993    2.3254 H   0  0
   -4.5306   -0.5817    2.8892 H   0  0
   -3.5841    1.6273    0.8593 H   0  0
   -4.6757    1.2175   -0.4815 H   0  0
   -5.2732    1.2858    1.1921 H   0  0
    2.9591   -0.0127    0.3384 H   0  0
    1.4999    0.9439    0.7428 H   0  0
    2.2579    1.1020   -0.8636 H   0  0
  1  4  1  0
  1 14  2  0
  1 17  1  0
  2 13  1  0
  2 15  2  0
  2 18  1  0
  3  4  1  0
  3 16  1  0
  4 13  1  0
  5  6  1  0
  5  7  1  0
  5 13  1  0
  5 16  1  0
  8 12  1  0
  9 12  1  0
 10 12  1  0
 11 17  1  0
 12 18  1  0
  3 19  1  0
  3 20  1  0
  4 21  1  0
  6 22  1  0
  6 23  1  0
  6 24  1  0
  7 25  1  0
  7 26  1  0
  7 27  1  0
  8 28  1  0
  8 29  1  0
  8 30  1  0
  9 31  1  0
  9 32  1  0
  9 33  1  0
 10 34  1  0
 10 35  1  0
 10 36  1  0
 11 37  1  0
 11 38  1  0
 11 39  1  0
M  END
> <Name>
BR010434

$$$$
BR010435
  SciTegic05062102053D

 37 37  0  0  1  0            999 V2000
    0.5585    1.1750    0.3874 C   0  0
   -0.6157   -2.2720    0.3126 C   0  0
   -0.7213   -0.9175    0.9861 C   0  0  2  0  0  0
    0.1378   -0.7189   -1.2321 C   0  0
    1.5899   -1.0343   -1.5983 C   0  0
   -0.5536    0.0641   -2.3466 C   0  0
    0.2091    3.8850    1.2333 C   0  0
    0.4335    2.9906    3.5698 C   0  0
    2.3472    2.7723    1.9579 C   0  0
   -2.1730   -0.4586    1.1118 C   0  0
    0.8267    2.7943    2.1072 C   0  0
    0.0232   -0.0670    0.0714 N   0  0
    1.1861    1.8843   -0.3953 O   0  0
   -0.5687   -1.9754   -1.0924 O   0  0
   -2.2464    0.5244    2.1273 O   0  0
    0.3090    1.5267    1.6878 O   0  0
    0.3183   -2.7789    0.5811 H   0  0
   -1.4514   -2.9443    0.5259 H   0  0
   -0.2573   -0.9241    1.9779 H   0  0
    2.0585   -1.5911   -0.7899 H   0  0
    2.1361   -0.1077   -1.7598 H   0  0
    1.6168   -1.6304   -2.5077 H   0  0
   -1.5833    0.2765   -2.0641 H   0  0
   -0.5489   -0.5199   -3.2654 H   0  0
   -0.0295    1.0029   -2.5177 H   0  0
    0.4889    3.7476    0.1827 H   0  0
   -0.8835    3.8885    1.3046 H   0  0
    0.5780    4.8751    1.5246 H   0  0
    0.8744    2.2102    4.2005 H   0  0
   -0.6524    2.9124    3.6959 H   0  0
    0.7571    3.9658    3.9477 H   0  0
    2.7904    1.9900    2.5846 H   0  0
    2.6480    2.5955    0.9201 H   0  0
    2.7851    3.7203    2.2907 H   0  0
   -2.8062   -1.3035    1.3798 H   0  0
   -2.5087   -0.0298    0.1684 H   0  0
   -3.1765    0.8018    2.1904 H   0  0
  1 12  1  0
  1 13  2  0
  1 16  1  0
  2  3  1  0
  2 14  1  0
  3 10  1  0
  3 12  1  0
  4  5  1  0
  4  6  1  0
  4 12  1  0
  4 14  1  0
  7 11  1  0
  8 11  1  0
  9 11  1  0
 10 15  1  0
 11 16  1  0
  2 17  1  0
  2 18  1  0
  3 19  1  0
  5 20  1  0
  5 21  1  0
  5 22  1  0
  6 23  1  0
  6 24  1  0
  6 25  1  0
  7 26  1  0
  7 27  1  0
  7 28  1  0
  8 29  1  0
  8 30  1  0
  8 31  1  0
  9 32  1  0
  9 33  1  0
  9 34  1  0
 10 35  1  0
 10 36  1  0
 15 37  1  0
M  END
> <Name>
BR010435

$$$$
BR010436
  SciTegic05062102053D

 37 37  0  0  1  0            999 V2000
   -0.6427    0.1265    1.1890 C   0  0
    0.7374   -1.2103   -1.9054 C   0  0
    0.7350   -1.2813   -0.3907 C   0  0  1  0  0  0
   -0.0455    0.8390   -1.1610 C   0  0
    0.6421    2.1658   -0.8450 C   0  0
   -1.4603    1.0650   -1.6987 C   0  0
   -2.5828   -0.6279    3.1508 C   0  0
   -0.7660   -2.0608    4.1284 C   0  0
   -0.4781    0.4325    4.0345 C   0  0
    2.1505   -1.2293    0.1815 C   0  0
   -1.0752   -0.7903    3.3394 C   0  0
   -0.0220   -0.0919   -0.0341 N   0  0
   -1.2798    1.1366    1.4780 O   0  0
    0.7286    0.1954   -2.2024 O   0  0
    2.1205   -1.7425    1.5001 O   0  0
   -0.4665   -0.9244    2.0501 O   0  0
    1.6027   -1.6869   -2.3744 H   0  0
   -0.1745   -1.6491   -2.3264 H   0  0
    0.2329   -2.1855   -0.0311 H   0  0
    1.6452    1.9802   -0.4648 H   0  0
    0.0704    2.7078   -0.0936 H   0  0
    0.7089    2.7709   -1.7477 H   0  0
   -1.9270    0.1066   -1.9154 H   0  0
   -1.4152    1.6566   -2.6103 H   0  0
   -2.0539    1.5938   -0.9562 H   0  0
   -2.8088    0.2829    2.5849 H   0  0
   -3.0176   -1.4826    2.6223 H   0  0
   -3.0889   -0.5248    4.1175 H   0  0
    0.3146   -2.1814    4.2660 H   0  0
   -1.1093   -2.9498    3.5869 H   0  0
   -1.2420   -2.0501    5.1142 H   0  0
    0.6032    0.3162    4.1698 H   0  0
   -0.6584    1.3490    3.4634 H   0  0
   -0.9036    0.5573    5.0368 H   0  0
    2.5035   -0.1990    0.2024 H   0  0
    2.8186   -1.8366   -0.4279 H   0  0
    3.0292   -1.7003    1.8443 H   0  0
  1 12  1  0
  1 13  2  0
  1 16  1  0
  2  3  1  0
  2 14  1  0
  3 10  1  0
  3 12  1  0
  4  5  1  0
  4  6  1  0
  4 12  1  0
  4 14  1  0
  7 11  1  0
  8 11  1  0
  9 11  1  0
 10 15  1  0
 11 16  1  0
  2 17  1  0
  2 18  1  0
  3 19  1  0
  5 20  1  0
  5 21  1  0
  5 22  1  0
  6 23  1  0
  6 24  1  0
  6 25  1  0
  7 26  1  0
  7 27  1  0
  7 28  1  0
  8 29  1  0
  8 30  1  0
  8 31  1  0
  9 32  1  0
  9 33  1  0
  9 34  1  0
 10 35  1  0
 10 36  1  0
 15 37  1  0
M  END
> <Name>
BR010436

$$$$
BR010437
  SciTegic05062102053D

 50 52  0  0  1  0            999 V2000
   -0.2057    3.4358    6.2217 C   0  0
   -1.0668    3.8648    5.2118 C   0  0
    0.9910    2.7984    5.8939 C   0  0
   -0.7314    3.6564    3.8740 C   0  0
    1.3265    2.5900    4.5561 C   0  0
   -5.8226    0.3507    2.9334 C   0  0
   -4.6065    1.1198    4.8742 C   0  0
   -4.6280    0.2659    2.2184 C   0  0
   -3.4118    1.0349    4.1592 C   0  0
    0.4653    3.0190    3.5461 C   0  0
   -5.8119    0.7777    4.2613 C   0  0
   -3.4226    0.6080    2.8313 C   0  0
    0.5585    1.1750    0.3874 C   0  0
   -0.6157   -2.2720    0.3126 C   0  0
   -0.7213   -0.9175    0.9861 C   0  0  2  0  0  0
    0.1378   -0.7189   -1.2321 C   0  0
    1.5899   -1.0343   -1.5983 C   0  0
   -0.5536    0.0641   -2.3466 C   0  0
    0.8267    2.7943    2.1072 C   0  0
   -2.1730   -0.4586    1.1118 C   0  0
    0.0232   -0.0670    0.0714 N   0  0
   -7.0279    0.8644    4.9894 N   0  3
   -8.1014    0.5522    4.4195 O   0  5
    1.1861    1.8843   -0.3953 O   0  0
   -6.9957    1.2505    6.1828 O   0  0
   -0.5687   -1.9754   -1.0924 O   0  0
   -2.2464    0.5244    2.1273 O   0  0
    0.3090    1.5267    1.6878 O   0  0
   -0.4664    3.5993    7.2633 H   0  0
   -1.9981    4.3620    5.4668 H   0  0
    1.6622    2.4653    6.6799 H   0  0
   -1.4085    3.9938    3.0938 H   0  0
    2.2609    2.0925    4.3101 H   0  0
   -6.7552    0.0808    2.4439 H   0  0
   -4.5837    1.4546    5.9084 H   0  0
   -4.6427   -0.0677    1.1844 H   0  0
   -2.4760    1.3032    4.6420 H   0  0
    0.3183   -2.7789    0.5811 H   0  0
   -1.4514   -2.9443    0.5259 H   0  0
   -0.2573   -0.9241    1.9779 H   0  0
    2.0585   -1.5911   -0.7899 H   0  0
    2.1361   -0.1077   -1.7598 H   0  0
    1.6168   -1.6304   -2.5077 H   0  0
   -1.5833    0.2765   -2.0641 H   0  0
   -0.5489   -0.5199   -3.2654 H   0  0
   -0.0295    1.0029   -2.5177 H   0  0
    0.4064    3.5801    1.4704 H   0  0
    1.9140    2.7997    1.9751 H   0  0
   -2.8062   -1.3035    1.3798 H   0  0
   -2.5087   -0.0298    0.1684 H   0  0
  1  2  2  0
  1  3  1  0
  2  4  1  0
  3  5  2  0
  4 10  2  0
  5 10  1  0
  6  8  1  0
  6 11  2  0
  7  9  2  0
  7 11  1  0
  8 12  2  0
  9 12  1  0
 10 19  1  0
 11 22  1  0
 12 27  1  0
 13 21  1  0
 13 24  2  0
 13 28  1  0
 14 15  1  0
 14 26  1  0
 15 20  1  0
 15 21  1  0
 16 17  1  0
 16 18  1  0
 16 21  1  0
 16 26  1  0
 19 28  1  0
 20 27  1  0
 22 23  1  0
 22 25  2  0
  1 29  1  0
  2 30  1  0
  3 31  1  0
  4 32  1  0
  5 33  1  0
  6 34  1  0
  7 35  1  0
  8 36  1  0
  9 37  1  0
 14 38  1  0
 14 39  1  0
 15 40  1  0
 17 41  1  0
 17 42  1  0
 17 43  1  0
 18 44  1  0
 18 45  1  0
 18 46  1  0
 19 47  1  0
 19 48  1  0
 20 49  1  0
 20 50  1  0
M  CHG  2  22   1  23  -1
M  END
> <Name>
BR010437

$$$$
BR010438
  SciTegic05062102053D

 51 52  0  0  1  0            999 V2000
    2.5582    3.4606    4.8353 C   0  0
    1.1288    5.3780    4.4926 C   0  0
    2.2261    2.9862    3.5663 C   0  0
    0.7967    4.9036    3.2236 C   0  0
    2.0095    4.6565    5.2985 C   0  0
    1.3454    3.7077    2.7605 C   0  0
   -1.1419   -0.6594    1.0075 C   0  0
    0.5486    1.7461   -1.1368 C   0  0
   -0.0046    1.4870    0.2516 C   0  0  2  0  0  0
    0.5469   -0.5515   -0.8561 C   0  0
   -0.3103   -1.1936   -1.9505 C   0  0
    1.5847   -1.5373   -0.3219 C   0  0
   -3.8565   -1.5026    2.0482 C   0  0
   -3.5778    0.1212    3.9429 C   0  0
   -1.9424   -1.7445    3.6374 C   0  0
   -1.9242    0.1437    2.0166 C   0  0
    1.0256    1.8380    1.3260 C   0  0
   -2.8345   -0.7293    2.8987 C   0  0
   -0.2622    0.0536    0.2054 N   0  0
    2.3473    5.1395    6.5903 N   0  3
    3.1414    4.4753    7.2994 O   0  5
   -1.3242   -1.8760    0.9283 O   0  0
    1.8427    6.2176    6.9873 O   0  0
    1.2728    0.5482   -1.4592 O   0  0
    1.0184    3.2405    1.5109 O   0  0
    3.2462    2.8887    5.4531 H   0  0
    0.6935    6.3113    4.8413 H   0  0
    2.6570    2.0541    3.2109 H   0  0
    0.1097    5.4699    2.6007 H   0  0
   -0.2548    1.8644   -1.8729 H   0  0
    1.2116    2.6137   -1.1994 H   0  0
   -0.9223    2.0550    0.4281 H   0  0
   -1.0393   -0.4728   -2.3132 H   0  0
   -0.8302   -2.0589   -1.5464 H   0  0
    0.3255   -1.5081   -2.7747 H   0  0
    2.1814   -1.0601    0.4535 H   0  0
    2.2397   -1.8570   -1.1304 H   0  0
    1.0840   -2.4081    0.0979 H   0  0
   -3.3551   -2.1192    1.2933 H   0  0
   -4.5318   -0.8181    1.5227 H   0  0
   -4.4685   -2.1726    2.6616 H   0  0
   -2.8747    0.6854    4.5659 H   0  0
   -4.2577    0.8382    3.4704 H   0  0
   -4.1794   -0.5090    4.6081 H   0  0
   -1.1958   -1.2368    4.2587 H   0  0
   -1.4068   -2.3886    2.9309 H   0  0
   -2.5356   -2.3918    4.2933 H   0  0
   -2.5091    0.8733    1.4519 H   0  0
   -1.1933    0.6839    2.6227 H   0  0
    2.0158    1.5195    1.0046 H   0  0
    0.7637    1.3473    2.2619 H   0  0
  1  3  1  0
  1  5  2  0
  2  4  2  0
  2  5  1  0
  3  6  2  0
  4  6  1  0
  5 20  1  0
  6 25  1  0
  7 16  1  0
  7 19  1  0
  7 22  2  0
  8  9  1  0
  8 24  1  0
  9 17  1  0
  9 19  1  0
 10 11  1  0
 10 12  1  0
 10 19  1  0
 10 24  1  0
 13 18  1  0
 14 18  1  0
 15 18  1  0
 16 18  1  0
 17 25  1  0
 20 21  1  0
 20 23  2  0
  1 26  1  0
  2 27  1  0
  3 28  1  0
  4 29  1  0
  8 30  1  0
  8 31  1  0
  9 32  1  0
 11 33  1  0
 11 34  1  0
 11 35  1  0
 12 36  1  0
 12 37  1  0
 12 38  1  0
 13 39  1  0
 13 40  1  0
 13 41  1  0
 14 42  1  0
 14 43  1  0
 14 44  1  0
 15 45  1  0
 15 46  1  0
 15 47  1  0
 16 48  1  0
 16 49  1  0
 17 50  1  0
 17 51  1  0
M  CHG  2  20   1  21  -1
M  END
> <Name>
BR010438

$$$$
BR010439
  SciTegic05062102053D

 52 54  0  0  1  0            999 V2000
   -5.0371    1.5007    5.8303 C   0  0
   -3.7969    0.9440    6.1429 C   0  0
   -5.5726    1.3380    4.5527 C   0  0
   -3.0922    0.2246    5.1777 C   0  0
   -4.8679    0.6186    3.5875 C   0  0
    2.5582    3.4606    4.8353 C   0  0
    1.1288    5.3780    4.4926 C   0  0
    2.2261    2.9862    3.5663 C   0  0
    0.7967    4.9036    3.2236 C   0  0
   -3.6277    0.0619    3.9000 C   0  0
    2.0095    4.6565    5.2985 C   0  0
    1.3454    3.7077    2.7605 C   0  0
   -1.1419   -0.6594    1.0075 C   0  0
    0.5486    1.7461   -1.1368 C   0  0
   -0.0046    1.4870    0.2516 C   0  0  2  0  0  0
    0.5469   -0.5515   -0.8561 C   0  0
   -0.3103   -1.1936   -1.9505 C   0  0
    1.5847   -1.5373   -0.3219 C   0  0
   -2.8656   -0.7162    2.8551 C   0  0
   -1.9242    0.1437    2.0166 C   0  0
    1.0256    1.8380    1.3260 C   0  0
   -0.2622    0.0536    0.2054 N   0  0
    2.3473    5.1395    6.5903 N   0  3
    3.1414    4.4753    7.2994 O   0  5
   -1.3242   -1.8760    0.9283 O   0  0
    1.8427    6.2176    6.9873 O   0  0
    1.2728    0.5482   -1.4592 O   0  0
    1.0184    3.2405    1.5109 O   0  0
   -5.5863    2.0597    6.5824 H   0  0
   -3.3803    1.0697    7.1380 H   0  0
   -6.5386    1.7703    4.3094 H   0  0
   -2.1265   -0.2054    5.4301 H   0  0
   -5.2929    0.4970    2.5947 H   0  0
    3.2462    2.8887    5.4531 H   0  0
    0.6935    6.3113    4.8413 H   0  0
    2.6570    2.0541    3.2109 H   0  0
    0.1097    5.4699    2.6007 H   0  0
   -0.2548    1.8644   -1.8729 H   0  0
    1.2116    2.6137   -1.1994 H   0  0
   -0.9223    2.0550    0.4281 H   0  0
   -1.0393   -0.4728   -2.3132 H   0  0
   -0.8302   -2.0589   -1.5464 H   0  0
    0.3255   -1.5081   -2.7747 H   0  0
    2.1814   -1.0601    0.4535 H   0  0
    2.2397   -1.8570   -1.1304 H   0  0
    1.0840   -2.4081    0.0979 H   0  0
   -3.5652   -1.2619    2.2085 H   0  0
   -2.2731   -1.4869    3.3653 H   0  0
   -2.4718    0.9218    1.4823 H   0  0
   -1.2007    0.6359    2.6688 H   0  0
    2.0158    1.5195    1.0046 H   0  0
    0.7637    1.3473    2.2619 H   0  0
  1  2  2  0
  1  3  1  0
  2  4  1  0
  3  5  2  0
  4 10  2  0
  5 10  1  0
  6  8  1  0
  6 11  2  0
  7  9  2  0
  7 11  1  0
  8 12  2  0
  9 12  1  0
 10 19  1  0
 11 23  1  0
 12 28  1  0
 13 20  1  0
 13 22  1  0
 13 25  2  0
 14 15  1  0
 14 27  1  0
 15 21  1  0
 15 22  1  0
 16 17  1  0
 16 18  1  0
 16 22  1  0
 16 27  1  0
 19 20  1  0
 21 28  1  0
 23 24  1  0
 23 26  2  0
  1 29  1  0
  2 30  1  0
  3 31  1  0
  4 32  1  0
  5 33  1  0
  6 34  1  0
  7 35  1  0
  8 36  1  0
  9 37  1  0
 14 38  1  0
 14 39  1  0
 15 40  1  0
 17 41  1  0
 17 42  1  0
 17 43  1  0
 18 44  1  0
 18 45  1  0
 18 46  1  0
 19 47  1  0
 19 48  1  0
 20 49  1  0
 20 50  1  0
 21 51  1  0
 21 52  1  0
M  CHG  2  23   1  24  -1
M  END
> <Name>
BR010439

$$$$
BR010440
  SciTegic05062102053D

 50 52  0  0  1  0            999 V2000
   -1.0531    4.2995    6.4625 C   0  0
   -0.8392    4.6449    5.1282 C   0  0
   -1.4037    2.9914    6.7968 C   0  0
   -0.9759    3.6823    4.1280 C   0  0
   -1.5404    2.0288    5.7966 C   0  0
    4.7053   -0.6000    4.1961 C   0  0
    3.5958    0.9592    5.6710 C   0  0
    3.8416   -0.2370    3.1627 C   0  0
    2.7322    1.3222    4.6375 C   0  0
   -1.3265    2.3742    4.4622 C   0  0
    4.5824   -0.0019    5.4503 C   0  0
    2.8551    0.7241    3.3834 C   0  0
   -1.4711    1.3571    3.4062 C   0  0
   -0.9423    1.4431    2.1765 C   0  0
   -1.1233    0.3999    1.1469 C   0  0
    1.5680    0.7375   -1.2992 C   0  0
    1.1481    0.9815    0.1378 C   0  0  2  0  0  0
   -0.1563   -0.7431   -0.8679 C   0  0
   -1.3029   -0.4724   -1.8461 C   0  0
   -0.1919   -2.1854   -0.3639 C   0  0
    2.1850    0.4357    1.1198 C   0  0
   -0.1052    0.2390    0.2200 N   0  0
    5.4613   -0.3714    6.5025 N   0  3
    6.3418   -1.2380    6.2832 O   0  5
   -2.1648   -0.2562    1.1711 O   0  0
    5.3336    0.1792    7.6228 O   0  0
    1.0868   -0.5815   -1.5935 O   0  0
    2.0047    1.0815    2.3657 O   0  0
   -0.9454    5.0487    7.2414 H   0  0
   -0.5651    5.6632    4.8678 H   0  0
   -1.5691    2.7220    7.8358 H   0  0
   -0.8060    3.9668    3.0923 H   0  0
   -1.8142    1.0133    6.0731 H   0  0
    5.4701   -1.3501    4.0106 H   0  0
    3.4886    1.4329    6.6437 H   0  0
    3.9425   -0.7061    2.1877 H   0  0
    1.9654    2.0712    4.8157 H   0  0
   -2.0740    0.4903    3.6709 H   0  0
   -0.3554    2.3027    1.8681 H   0  0
    1.0763    1.4385   -1.9834 H   0  0
    2.6480    0.7887   -1.4642 H   0  0
    0.9924    2.0489    0.3205 H   0  0
   -1.2547    0.5585   -2.1888 H   0  0
   -2.2549   -0.6419   -1.3486 H   0  0
   -1.2192   -1.1400   -2.7004 H   0  0
    0.6308   -2.3540    0.3285 H   0  0
   -0.0982   -2.8713   -1.2039 H   0  0
   -1.1340   -2.3735    0.1478 H   0  0
    3.1880    0.6393    0.7479 H   0  0
    2.0466   -0.6371    1.2442 H   0  0
  1  2  2  0
  1  3  1  0
  2  4  1  0
  3  5  2  0
  4 10  2  0
  5 10  1  0
  6  8  1  0
  6 11  2  0
  7  9  2  0
  7 11  1  0
  8 12  2  0
  9 12  1  0
 10 13  1  0
 11 23  1  0
 12 28  1  0
 13 14  2  0
 14 15  1  0
 15 22  1  0
 15 25  2  0
 16 17  1  0
 16 27  1  0
 17 21  1  0
 17 22  1  0
 18 19  1  0
 18 20  1  0
 18 22  1  0
 18 27  1  0
 21 28  1  0
 23 24  1  0
 23 26  2  0
  1 29  1  0
  2 30  1  0
  3 31  1  0
  4 32  1  0
  5 33  1  0
  6 34  1  0
  7 35  1  0
  8 36  1  0
  9 37  1  0
 13 38  1  0
 14 39  1  0
 16 40  1  0
 16 41  1  0
 17 42  1  0
 19 43  1  0
 19 44  1  0
 19 45  1  0
 20 46  1  0
 20 47  1  0
 20 48  1  0
 21 49  1  0
 21 50  1  0
M  CHG  2  23   1  24  -1
M  END
> <Name>
BR010440

$$$$
BR010441
  SciTegic05062102053D

 48 49  0  0  1  0            999 V2000
    2.5582    3.4606    4.8353 C   0  0
    1.1288    5.3780    4.4926 C   0  0
    2.2261    2.9862    3.5663 C   0  0
    0.7967    4.9036    3.2236 C   0  0
    2.0095    4.6565    5.2985 C   0  0
    1.3454    3.7077    2.7605 C   0  0
   -1.1419   -0.6594    1.0075 C   0  0
    0.5486    1.7461   -1.1368 C   0  0
   -0.0046    1.4870    0.2516 C   0  0  2  0  0  0
    0.5469   -0.5515   -0.8561 C   0  0
   -0.3103   -1.1936   -1.9505 C   0  0
    1.5847   -1.5373   -0.3219 C   0  0
   -3.1732    0.5401    0.2553 C   0  0
   -1.9399    1.3054    2.3018 C   0  0
   -3.2259   -0.8434    2.3477 C   0  0
    1.0256    1.8380    1.3260 C   0  0
   -2.3674    0.0840    1.4775 C   0  0
   -0.2622    0.0536    0.2054 N   0  0
    2.3473    5.1395    6.5903 N   0  3
    3.1414    4.4753    7.2994 O   0  5
   -0.9869   -1.8387    1.3316 O   0  0
    1.8427    6.2176    6.9873 O   0  0
    1.2728    0.5482   -1.4592 O   0  0
    1.0184    3.2405    1.5109 O   0  0
    3.2462    2.8887    5.4531 H   0  0
    0.6935    6.3113    4.8413 H   0  0
    2.6570    2.0541    3.2109 H   0  0
    0.1097    5.4699    2.6007 H   0  0
   -0.2548    1.8644   -1.8729 H   0  0
    1.2116    2.6137   -1.1994 H   0  0
   -0.9223    2.0550    0.4281 H   0  0
   -1.0393   -0.4728   -2.3132 H   0  0
   -0.8302   -2.0589   -1.5464 H   0  0
    0.3255   -1.5081   -2.7747 H   0  0
    2.1814   -1.0601    0.4535 H   0  0
    2.2397   -1.8570   -1.1304 H   0  0
    1.0840   -2.4081    0.0979 H   0  0
   -4.0762    1.0869    0.5515 H   0  0
   -2.5782    1.2043   -0.3820 H   0  0
   -3.4889   -0.3122   -0.3579 H   0  0
   -2.8074    1.8716    2.6611 H   0  0
   -1.3195    1.9898    1.7112 H   0  0
   -1.3571    1.0027    3.1794 H   0  0
   -4.1275   -0.3337    2.7074 H   0  0
   -2.6727   -1.1965    3.2261 H   0  0
   -3.5467   -1.7264    1.7830 H   0  0
    2.0158    1.5195    1.0046 H   0  0
    0.7637    1.3473    2.2619 H   0  0
  1  3  1  0
  1  5  2  0
  2  4  2  0
  2  5  1  0
  3  6  2  0
  4  6  1  0
  5 19  1  0
  6 24  1  0
  7 17  1  0
  7 18  1  0
  7 21  2  0
  8  9  1  0
  8 23  1  0
  9 16  1  0
  9 18  1  0
 10 11  1  0
 10 12  1  0
 10 18  1  0
 10 23  1  0
 13 17  1  0
 14 17  1  0
 15 17  1  0
 16 24  1  0
 19 20  1  0
 19 22  2  0
  1 25  1  0
  2 26  1  0
  3 27  1  0
  4 28  1  0
  8 29  1  0
  8 30  1  0
  9 31  1  0
 11 32  1  0
 11 33  1  0
 11 34  1  0
 12 35  1  0
 12 36  1  0
 12 37  1  0
 13 38  1  0
 13 39  1  0
 13 40  1  0
 14 41  1  0
 14 42  1  0
 14 43  1  0
 15 44  1  0
 15 45  1  0
 15 46  1  0
 16 47  1  0
 16 48  1  0
M  CHG  2  19   1  20  -1
M  END
> <Name>
BR010441

$$$$
BR010442
  SciTegic05062102053D

 39 40  0  0  1  0            999 V2000
    2.5582    3.4606    4.8353 C   0  0
    1.1288    5.3780    4.4926 C   0  0
    2.2261    2.9862    3.5663 C   0  0
    0.7967    4.9036    3.2236 C   0  0
    2.0095    4.6565    5.2985 C   0  0
    1.3454    3.7077    2.7605 C   0  0
   -1.1419   -0.6594    1.0075 C   0  0
    0.5486    1.7461   -1.1368 C   0  0
   -0.0046    1.4870    0.2516 C   0  0  2  0  0  0
    0.5469   -0.5515   -0.8561 C   0  0
   -1.9242    0.1437    2.0166 C   0  0
   -0.3103   -1.1936   -1.9505 C   0  0
    1.5847   -1.5373   -0.3219 C   0  0
    1.0256    1.8380    1.3260 C   0  0
   -0.2622    0.0536    0.2054 N   0  0
    2.3473    5.1395    6.5903 N   0  3
    3.1414    4.4753    7.2994 O   0  5
   -1.3242   -1.8760    0.9283 O   0  0
    1.8427    6.2176    6.9873 O   0  0
    1.2728    0.5482   -1.4592 O   0  0
    1.0184    3.2405    1.5109 O   0  0
    3.2462    2.8887    5.4531 H   0  0
    0.6935    6.3113    4.8413 H   0  0
    2.6570    2.0541    3.2109 H   0  0
    0.1097    5.4699    2.6007 H   0  0
   -0.2548    1.8644   -1.8729 H   0  0
    1.2116    2.6137   -1.1994 H   0  0
   -0.9223    2.0550    0.4281 H   0  0
   -2.8526    0.4745    1.5633 H   0  0
   -1.3339    1.0015    2.3221 H   0  0
   -2.1337   -0.4793    2.8800 H   0  0
   -1.0393   -0.4728   -2.3132 H   0  0
   -0.8302   -2.0589   -1.5464 H   0  0
    0.3255   -1.5081   -2.7747 H   0  0
    2.1814   -1.0601    0.4535 H   0  0
    2.2397   -1.8570   -1.1304 H   0  0
    1.0840   -2.4081    0.0979 H   0  0
    2.0158    1.5195    1.0046 H   0  0
    0.7637    1.3473    2.2619 H   0  0
  1  3  1  0
  1  5  2  0
  2  4  2  0
  2  5  1  0
  3  6  2  0
  4  6  1  0
  5 16  1  0
  6 21  1  0
  7 11  1  0
  7 15  1  0
  7 18  2  0
  8  9  1  0
  8 20  1  0
  9 14  1  0
  9 15  1  0
 10 12  1  0
 10 13  1  0
 10 15  1  0
 10 20  1  0
 14 21  1  0
 16 17  1  0
 16 19  2  0
  1 22  1  0
  2 23  1  0
  3 24  1  0
  4 25  1  0
  8 26  1  0
  8 27  1  0
  9 28  1  0
 11 29  1  0
 11 30  1  0
 11 31  1  0
 12 32  1  0
 12 33  1  0
 12 34  1  0
 13 35  1  0
 13 36  1  0
 13 37  1  0
 14 38  1  0
 14 39  1  0
M  CHG  2  16   1  17  -1
M  END
> <Name>
BR010442

$$$$
BR010443
  SciTegic05062102053D

 46 48  0  0  1  0            999 V2000
    3.9020   -3.2200    1.8546 C   0  0
    2.5783   -3.5966    2.0816 C   0  0
    4.1969   -2.2526    0.8939 C   0  0
    1.5495   -3.0059    1.3479 C   0  0
    3.1682   -1.6619    0.1602 C   0  0
    5.6581    2.6531    1.6697 C   0  0
    5.5259    1.9865    3.9881 C   0  0
    4.2920    2.4127    1.5226 C   0  0
    4.1598    1.7461    3.8411 C   0  0
    1.8444   -2.0386    0.3872 C   0  0
    6.2751    2.4399    2.9024 C   0  0
    3.5428    1.9593    2.6083 C   0  0
    0.7606   -1.4164   -0.3857 C   0  0
   -0.7282    1.2581    1.6104 C   0  0
    0.5180    0.4303    1.3611 C   0  0  2  0  0  0
   -0.9005    0.4620   -0.5564 C   0  0
   -2.1708   -0.3818   -0.6907 C   0  0
   -0.4735    1.0318   -1.9084 C   0  0
    1.7499    1.3172    1.1839 C   0  0
    0.1759   -0.2620    0.1237 N   0  0
    7.6658    2.6842    3.0523 N   0  3
    8.3216    3.0917    2.0632 O   0  5
    0.4488   -1.9771   -1.4346 O   0  0
    8.2008    2.4863    4.1699 O   0  0
   -1.2079    1.5895    0.2989 O   0  0
    2.1977    1.7228    2.4635 O   0  0
    4.7030   -3.6799    2.4259 H   0  0
    2.3489   -4.3499    2.8296 H   0  0
    5.2276   -1.9592    0.7173 H   0  0
    0.5215   -3.3068    1.5330 H   0  0
    3.4097   -0.9093   -0.5860 H   0  0
    6.2304    3.0066    0.8155 H   0  0
    5.9941    1.8156    4.9544 H   0  0
    3.8170    2.5809    0.5599 H   0  0
    3.5815    1.3926    4.6904 H   0  0
   -1.5034    0.6704    2.1153 H   0  0
   -0.5507    2.1704    2.1866 H   0  0
    0.6953   -0.2789    2.1748 H   0  0
   -2.4533   -0.7750    0.2833 H   0  0
   -1.9900   -1.2088   -1.3734 H   0  0
   -2.9795    0.2339   -1.0780 H   0  0
    0.4302    1.6271   -1.7889 H   0  0
   -1.2654    1.6619   -2.3097 H   0  0
   -0.2760    0.2191   -2.6054 H   0  0
    1.4906    2.1964    0.5957 H   0  0
    2.5395    0.7576    0.6845 H   0  0
  1  2  2  0
  1  3  1  0
  2  4  1  0
  3  5  2  0
  4 10  2  0
  5 10  1  0
  6  8  1  0
  6 11  2  0
  7  9  2  0
  7 11  1  0
  8 12  2  0
  9 12  1  0
 10 13  1  0
 11 21  1  0
 12 26  1  0
 13 20  1  0
 13 23  2  0
 14 15  1  0
 14 25  1  0
 15 19  1  0
 15 20  1  0
 16 17  1  0
 16 18  1  0
 16 20  1  0
 16 25  1  0
 19 26  1  0
 21 22  1  0
 21 24  2  0
  1 27  1  0
  2 28  1  0
  3 29  1  0
  4 30  1  0
  5 31  1  0
  6 32  1  0
  7 33  1  0
  8 34  1  0
  9 35  1  0
 14 36  1  0
 14 37  1  0
 15 38  1  0
 17 39  1  0
 17 40  1  0
 17 41  1  0
 18 42  1  0
 18 43  1  0
 18 44  1  0
 19 45  1  0
 19 46  1  0
M  CHG  2  21   1  22  -1
M  END
> <Name>
BR010443

$$$$
BR010444
  SciTegic05062102053D

 35 36  0  0  1  0            999 V2000
    2.2919   -1.9508   -5.7859 C   0  0
    3.5888   -3.4427   -4.3969 C   0  0
    2.1238   -1.0884   -4.7026 C   0  0
    3.4206   -2.5803   -3.3136 C   0  0
    3.0244   -3.1280   -5.6330 C   0  0
    2.6881   -1.4031   -3.4665 C   0  0
   -0.3254    1.2858   -0.7505 C   0  0
    0.9386    0.4618   -0.9309 C   0  0  2  0  0  0
   -0.3935   -0.3808    0.8082 C   0  0
    0.2937   -0.4441    2.1686 C   0  0
   -1.6170   -1.2905    0.7571 C   0  0
    1.3277    0.2110   -2.3712 C   0  0
    3.1956   -4.0063   -6.7355 N   0  3
    0.5797   -0.8195   -0.2499 N   0  3
    2.6797   -3.7048   -7.8389 O   0  5
    3.8584   -5.0598   -6.5764 O   0  0
   -0.8037    0.9761    0.5685 O   0  0
    2.5228   -0.5552   -2.4016 O   0  0
    1.8471   -1.6935   -6.7440 H   0  0
    4.1616   -4.3572   -4.2635 H   0  0
    1.5524   -0.1726   -4.8280 H   0  0
    3.8623   -2.8310   -2.3530 H   0  0
   -0.1373    2.3606   -0.8260 H   0  0
   -1.1062    1.0151   -1.4707 H   0  0
    1.7690    0.8889   -0.3569 H   0  0
    1.1620    0.2138    2.1766 H   0  0
    0.6187   -1.4636    2.3729 H   0  0
   -0.3982   -0.1286    2.9488 H   0  0
   -2.0869   -1.2255   -0.2235 H   0  0
   -2.3367   -0.9872    1.5166 H   0  0
   -1.3199   -2.3224    0.9410 H   0  0
    1.5030    1.1571   -2.8927 H   0  0
    0.5408   -0.3437   -2.8915 H   0  0
    0.1380   -1.4719   -0.9126 H   0  0
    1.4081   -1.2967    0.1320 H   0  0
  1  3  1  0
  1  5  2  0
  2  4  2  0
  2  5  1  0
  3  6  2  0
  4  6  1  0
  5 13  1  0
  6 18  1  0
  7  8  1  0
  7 17  1  0
  8 12  1  0
  8 14  1  0
  9 10  1  0
  9 11  1  0
  9 14  1  0
  9 17  1  0
 12 18  1  0
 13 15  1  0
 13 16  2  0
  1 19  1  0
  2 20  1  0
  3 21  1  0
  4 22  1  0
  7 23  1  0
  7 24  1  0
  8 25  1  0
 10 26  1  0
 10 27  1  0
 10 28  1  0
 11 29  1  0
 11 30  1  0
 11 31  1  0
 12 32  1  0
 12 33  1  0
 14 34  1  0
 14 35  1  0
M  CHG  3  13   1  14   1  15  -1
M  END
> <Name>
BR010444

$$$$
BR010445
  SciTegic05062102053D

 42 42  0  0  1  0            999 V2000
   -0.8875    5.9426    1.9823 C   0  0
    1.3529    6.6951    2.4836 C   0  0
   -0.4559    4.6176    2.0424 C   0  0
    1.7845    5.3701    2.5438 C   0  0
    0.0169    6.9814    2.2028 C   0  0
    0.8801    4.3313    2.3231 C   0  0
    3.6206    2.1371    0.2469 C   0  0
    6.4394    2.2616   -0.1877 C   0  0
    5.8690    3.4230   -2.3406 C   0  0
    5.2305    4.4688   -0.1482 C   0  0
    0.8304   -0.2506    0.6691 C   0  0
    0.6151    2.0944    1.5605 C   0  0
    1.5838    0.9995    1.1177 C   0  0  2  0  0  0
    5.4275    3.1552   -0.9035 C   0  0
    2.4244    1.4863    0.0432 N   0  0
   -0.4221    8.3304    2.1415 N   0  3
   -1.6280    8.5664    1.8874 O   0  5
    4.1260    2.3877    1.3361 O   0  0
    0.4078    9.2496    2.3434 O   0  0
   -0.0439    0.0842   -0.4028 O   0  0
    1.3039    3.0301    2.3823 O   0  0
    4.1720    2.4685   -0.9587 O   0  0
   -1.9316    6.1519    1.7628 H   0  0
    2.0686    7.4951    2.6571 H   0  0
   -1.1651    3.8126    1.8700 H   0  0
    2.8266    5.1534    2.7625 H   0  0
    6.1260    2.0670    0.8442 H   0  0
    6.5636    1.3021   -0.7002 H   0  0
    7.4183    2.7506   -0.1265 H   0  0
    5.1459    4.0638   -2.8580 H   0  0
    5.9200    2.4901   -2.9136 H   0  0
    6.8503    3.9070   -2.3783 H   0  0
    4.5047    5.1100   -0.6614 H   0  0
    4.8781    4.2974    0.8741 H   0  0
    6.1670    5.0365   -0.1031 H   0  0
    0.2192   -0.6496    1.4853 H   0  0
    1.5178   -1.0316    0.3260 H   0  0
   -0.2243    1.6822    2.1310 H   0  0
    0.2220    2.6375    0.6949 H   0  0
    2.2717    0.7538    1.9354 H   0  0
    2.1152    1.3398   -0.9109 H   0  0
   -0.5001   -0.7340   -0.6556 H   0  0
  1  3  1  0
  1  5  2  0
  2  4  2  0
  2  5  1  0
  3  6  2  0
  4  6  1  0
  5 16  1  0
  6 21  1  0
  7 15  1  0
  7 18  2  0
  7 22  1  0
  8 14  1  0
  9 14  1  0
 10 14  1  0
 11 13  1  0
 11 20  1  0
 12 13  1  0
 12 21  1  0
 13 15  1  0
 14 22  1  0
 16 17  1  0
 16 19  2  0
  1 23  1  0
  2 24  1  0
  3 25  1  0
  4 26  1  0
  8 27  1  0
  8 28  1  0
  8 29  1  0
  9 30  1  0
  9 31  1  0
  9 32  1  0
 10 33  1  0
 10 34  1  0
 10 35  1  0
 11 36  1  0
 11 37  1  0
 12 38  1  0
 12 39  1  0
 13 40  1  0
 15 41  1  0
 20 42  1  0
M  CHG  2  16   1  17  -1
M  END
> <Name>
BR010445

$$$$
BR010446
  SciTegic05062102053D

 40 41  0  0  1  0            999 V2000
    4.4443    3.4740    4.9959 C   0  0
    4.7073    2.3732    4.1806 C   0  0
    3.2794    3.5120    5.7622 C   0  0
    3.8053    1.3103    4.1316 C   0  0
    2.3774    2.4491    5.7132 C   0  0
    2.6403    1.3483    4.8979 C   0  0
   -0.0170    0.9044    0.7000 C   0  0
   -0.2459   -0.5115    3.6334 C   0  0
   -2.4195    1.0706    1.1615 C   0  0
   -1.0530    1.0110    1.8030 C   0  0  1  0  0  0
   -2.2589   -1.0072    2.1876 C   0  0
   -1.8398   -2.3826    1.6717 C   0  0
   -3.3201   -1.1270    3.2830 C   0  0
    0.8476    2.0412   -1.1825 C   0  0
    1.6695    0.2054    4.8454 C   0  0
   -1.1230   -0.1908    2.6060 N   0  0
    0.7479   -0.0414    0.5675 O   0  0
   -0.3092   -1.5333    4.3127 O   0  0
   -2.8483   -0.2990    1.0718 O   0  0
   -0.0817    2.0104   -0.0946 O   0  0
    0.7145    0.4506    3.8068 O   0  0
    5.1474    4.3009    5.0350 H   0  0
    5.6148    2.3430    3.5847 H   0  0
    3.0749    4.3684    6.3979 H   0  0
    4.0184    0.4568    3.4934 H   0  0
    1.4723    2.4874    6.3136 H   0  0
   -3.1348    1.6033    1.7980 H   0  0
   -2.4280    1.5220    0.1651 H   0  0
   -0.8345    1.9169    2.3954 H   0  0
   -1.0855   -2.2712    0.8946 H   0  0
   -2.7037   -2.9007    1.2585 H   0  0
   -1.4266   -2.9728    2.4881 H   0  0
   -3.5999   -0.1353    3.6316 H   0  0
   -2.9225   -1.7017    4.1165 H   0  0
   -4.1997   -1.6299    2.8871 H   0  0
    0.7124    2.9637   -1.7523 H   0  0
    0.6836    1.1744   -1.8277 H   0  0
    1.8640    2.0082   -0.7828 H   0  0
    2.1861   -0.7384    4.6401 H   0  0
    1.1429    0.0999    5.8001 H   0  0
  1  2  1  0
  1  3  2  0
  2  4  2  0
  3  5  1  0
  4  6  1  0
  5  6  2  0
  6 15  1  0
  7 10  1  0
  7 17  2  0
  7 20  1  0
  8 16  1  0
  8 18  2  0
  8 21  1  0
  9 10  1  0
  9 19  1  0
 10 16  1  0
 11 12  1  0
 11 13  1  0
 11 16  1  0
 11 19  1  0
 14 20  1  0
 15 21  1  0
  1 22  1  0
  2 23  1  0
  3 24  1  0
  4 25  1  0
  5 26  1  0
  9 27  1  0
  9 28  1  0
 10 29  1  0
 12 30  1  0
 12 31  1  0
 12 32  1  0
 13 33  1  0
 13 34  1  0
 13 35  1  0
 14 36  1  0
 14 37  1  0
 14 38  1  0
 15 39  1  0
 15 40  1  0
M  END
> <Name>
BR010446

$$$$
BR010447
  SciTegic05062102053D

 38 39  0  0  1  0            999 V2000
   -0.2057    3.4358    6.2217 C   0  0
   -1.0668    3.8648    5.2118 C   0  0
    0.9910    2.7984    5.8939 C   0  0
   -0.7314    3.6564    3.8740 C   0  0
    1.3265    2.5900    4.5561 C   0  0
    0.4653    3.0190    3.5461 C   0  0
    0.5585    1.1750    0.3874 C   0  0
   -0.6157   -2.2720    0.3126 C   0  0
   -0.7213   -0.9175    0.9861 C   0  0  2  0  0  0
    0.1378   -0.7189   -1.2321 C   0  0
    1.5899   -1.0343   -1.5983 C   0  0
   -0.5536    0.0641   -2.3466 C   0  0
    0.8267    2.7943    2.1072 C   0  0
   -2.1730   -0.4586    1.1118 C   0  0
    0.0232   -0.0670    0.0714 N   0  0
    1.1861    1.8843   -0.3953 O   0  0
   -0.5687   -1.9754   -1.0924 O   0  0
   -2.2464    0.5244    2.1273 O   0  0
    0.3090    1.5267    1.6878 O   0  0
   -0.4664    3.5993    7.2633 H   0  0
   -1.9981    4.3620    5.4668 H   0  0
    1.6622    2.4653    6.6799 H   0  0
   -1.4085    3.9938    3.0938 H   0  0
    2.2609    2.0925    4.3101 H   0  0
    0.3183   -2.7789    0.5811 H   0  0
   -1.4514   -2.9443    0.5259 H   0  0
   -0.2573   -0.9241    1.9779 H   0  0
    2.0585   -1.5911   -0.7899 H   0  0
    2.1361   -0.1077   -1.7598 H   0  0
    1.6168   -1.6304   -2.5077 H   0  0
   -1.5833    0.2765   -2.0641 H   0  0
   -0.5489   -0.5199   -3.2654 H   0  0
   -0.0295    1.0029   -2.5177 H   0  0
    0.4064    3.5801    1.4704 H   0  0
    1.9140    2.7997    1.9751 H   0  0
   -2.8062   -1.3035    1.3798 H   0  0
   -2.5087   -0.0298    0.1684 H   0  0
   -3.1765    0.8018    2.1904 H   0  0
  1  2  2  0
  1  3  1  0
  2  4  1  0
  3  5  2  0
  4  6  2  0
  5  6  1  0
  6 13  1  0
  7 15  1  0
  7 16  2  0
  7 19  1  0
  8  9  1  0
  8 17  1  0
  9 14  1  0
  9 15  1  0
 10 11  1  0
 10 12  1  0
 10 15  1  0
 10 17  1  0
 13 19  1  0
 14 18  1  0
  1 20  1  0
  2 21  1  0
  3 22  1  0
  4 23  1  0
  5 24  1  0
  8 25  1  0
  8 26  1  0
  9 27  1  0
 11 28  1  0
 11 29  1  0
 11 30  1  0
 12 31  1  0
 12 32  1  0
 12 33  1  0
 13 34  1  0
 13 35  1  0
 14 36  1  0
 14 37  1  0
 18 38  1  0
M  END
> <Name>
BR010447

$$$$
BR010448
  SciTegic05062102053D

 54 56  0  0  1  0            999 V2000
   -0.2057    3.4358    6.2217 C   0  0
   -1.0668    3.8648    5.2118 C   0  0
    0.9910    2.7984    5.8939 C   0  0
   -5.8227    0.3512    2.9340 C   0  0
   -4.6060    1.1205    4.8743 C   0  0
   -0.7314    3.6564    3.8740 C   0  0
    1.3265    2.5900    4.5561 C   0  0
   -4.6282    0.2660    2.2188 C   0  0
   -3.4115    1.0352    4.1591 C   0  0
   -5.8116    0.7785    4.2618 C   0  0
    0.4653    3.0190    3.5461 C   0  0
   -3.4226    0.6080    2.8313 C   0  0
   -7.0569    0.8672    5.0077 C   0  0
    0.5585    1.1750    0.3874 C   0  0
   -0.6157   -2.2720    0.3126 C   0  0
   -0.7213   -0.9175    0.9861 C   0  0  2  0  0  0
    0.1378   -0.7189   -1.2321 C   0  0
    1.5899   -1.0343   -1.5983 C   0  0
   -0.5536    0.0641   -2.3466 C   0  0
   -8.0007    1.4297    7.1255 C   0  0
    0.8267    2.7943    2.1072 C   0  0
   -2.1730   -0.4586    1.1118 C   0  0
    0.0232   -0.0670    0.0714 N   0  0
   -8.1709    0.5847    4.5469 O   0  0
    1.1861    1.8843   -0.3953 O   0  0
   -0.5687   -1.9754   -1.0924 O   0  0
   -2.2464    0.5244    2.1273 O   0  0
   -6.8467    1.3020    6.2879 O   0  0
    0.3090    1.5267    1.6878 O   0  0
   -0.4664    3.5993    7.2633 H   0  0
   -1.9981    4.3620    5.4668 H   0  0
    1.6622    2.4653    6.6799 H   0  0
   -6.7560    0.0818    2.4463 H   0  0
   -4.5867    1.4544    5.9086 H   0  0
   -1.4085    3.9938    3.0938 H   0  0
    2.2609    2.0925    4.3101 H   0  0
   -4.6434   -0.0674    1.1847 H   0  0
   -2.4755    1.3033    4.6415 H   0  0
    0.3183   -2.7789    0.5811 H   0  0
   -1.4514   -2.9443    0.5259 H   0  0
   -0.2573   -0.9241    1.9779 H   0  0
    2.0585   -1.5911   -0.7899 H   0  0
    2.1361   -0.1077   -1.7598 H   0  0
    1.6168   -1.6304   -2.5077 H   0  0
   -1.5833    0.2765   -2.0641 H   0  0
   -0.5489   -0.5199   -3.2654 H   0  0
   -0.0295    1.0029   -2.5177 H   0  0
   -7.6970    1.7826    8.1141 H   0  0
   -8.4997    0.4610    7.2101 H   0  0
   -8.6866    2.1528    6.6779 H   0  0
    0.4064    3.5801    1.4704 H   0  0
    1.9140    2.7997    1.9751 H   0  0
   -2.8062   -1.3035    1.3798 H   0  0
   -2.5087   -0.0298    0.1684 H   0  0
  1  2  1  0
  1  3  2  0
  2  6  2  0
  3  7  1  0
  4  8  1  0
  4 10  2  0
  5  9  2  0
  5 10  1  0
  6 11  1  0
  7 11  2  0
  8 12  2  0
  9 12  1  0
 10 13  1  0
 11 21  1  0
 12 27  1  0
 13 24  2  0
 13 28  1  0
 14 23  1  0
 14 25  2  0
 14 29  1  0
 15 16  1  0
 15 26  1  0
 16 22  1  0
 16 23  1  0
 17 18  1  0
 17 19  1  0
 17 23  1  0
 17 26  1  0
 20 28  1  0
 21 29  1  0
 22 27  1  0
  1 30  1  0
  2 31  1  0
  3 32  1  0
  4 33  1  0
  5 34  1  0
  6 35  1  0
  7 36  1  0
  8 37  1  0
  9 38  1  0
 15 39  1  0
 15 40  1  0
 16 41  1  0
 18 42  1  0
 18 43  1  0
 18 44  1  0
 19 45  1  0
 19 46  1  0
 19 47  1  0
 20 48  1  0
 20 49  1  0
 20 50  1  0
 21 51  1  0
 21 52  1  0
 22 53  1  0
 22 54  1  0
M  END
> <Name>
BR010448

$$$$
BR010449
  SciTegic05062102053D

 39 40  0  0  1  0            999 V2000
    1.2113    0.5407   -6.5117 C   0  0
   -1.2011    0.5218   -6.3804 C   0  0
    1.2876    0.2195   -5.1565 C   0  0
   -1.1248    0.2005   -5.0252 C   0  0
   -0.0331    0.6920   -7.1236 C   0  0
    0.1196    0.0493   -4.4132 C   0  0
   -0.1128    1.0268   -8.5366 C   0  0
    2.0676    0.9683   -0.0487 C   0  0
    0.9386    0.4618   -0.9309 C   0  0  2  0  0  0
    0.1980    2.1445    0.5283 C   0  0
   -0.9404    1.7323    1.4562 C   0  0
    0.3043    3.6620    0.4138 C   0  0
   -1.6208    1.4573  -10.3346 C   0  0
    1.3277    0.2110   -2.3712 C   0  0
   -0.0568    1.5731   -0.8384 N   0  3
    0.8684    1.1959   -9.2727 O   0  0
    1.4285    1.6236    1.0588 O   0  0
    0.1942   -0.2663   -3.0810 O   0  0
   -1.4108    1.1315   -8.9565 O   0  0
    2.1282    0.6706   -7.0808 H   0  0
   -2.1756    0.6373   -6.8480 H   0  0
    2.2598    0.1031   -4.6855 H   0  0
   -2.0381    0.0696   -4.4512 H   0  0
    2.7012    0.1586    0.3242 H   0  0
    2.7010    1.7013   -0.5617 H   0  0
    0.4569   -0.4155   -0.4842 H   0  0
   -0.9930    0.6460    1.5192 H   0  0
   -1.8870    2.1121    1.0734 H   0  0
   -0.7718    2.1382    2.4531 H   0  0
    1.1236    3.9271   -0.2534 H   0  0
    0.4912    4.0957    1.3955 H   0  0
   -0.6242    4.0699    0.0159 H   0  0
   -2.6932    1.5100  -10.5381 H   0  0
   -1.1566    0.6947  -10.9651 H   0  0
   -1.1644    2.4276  -10.5441 H   0  0
    2.1216   -0.5400   -2.4300 H   0  0
    1.6745    1.1357   -2.8429 H   0  0
    0.1136    2.2755   -1.5717 H   0  0
   -1.0213    1.2365   -0.9654 H   0  0
  1  3  1  0
  1  5  2  0
  2  4  2  0
  2  5  1  0
  3  6  2  0
  4  6  1  0
  5  7  1  0
  6 18  1  0
  7 16  2  0
  7 19  1  0
  8  9  1  0
  8 17  1  0
  9 14  1  0
  9 15  1  0
 10 11  1  0
 10 12  1  0
 10 15  1  0
 10 17  1  0
 13 19  1  0
 14 18  1  0
  1 20  1  0
  2 21  1  0
  3 22  1  0
  4 23  1  0
  8 24  1  0
  8 25  1  0
  9 26  1  0
 11 27  1  0
 11 28  1  0
 11 29  1  0
 12 30  1  0
 12 31  1  0
 12 32  1  0
 13 33  1  0
 13 34  1  0
 13 35  1  0
 14 36  1  0
 14 37  1  0
 15 38  1  0
 15 39  1  0
M  CHG  1  15   1
M  END
> <Name>
BR010449

$$$$
BR010450
  SciTegic05062102053D

 32 32  0  0  1  0            999 V2000
    5.7320   -2.3523    2.3029 C   0  0
    5.1144   -1.6197    4.5208 C   0  0
    4.9316   -1.3527    1.7498 C   0  0
    4.3141   -0.6200    3.9677 C   0  0
    5.8233   -2.4858    3.6884 C   0  0
    4.2227   -0.4866    2.5822 C   0  0
    6.6579   -3.5278    4.2652 C   0  0
    7.4075   -4.4822    6.3194 C   0  0
    0.8690    0.7396   -0.7070 C   0  0
    2.8555    0.2220    0.7699 C   0  0
    1.5281    0.9597    0.6488 C   0  0  2  0  0  0
    0.6066    0.4401    1.7058 N   0  3
    7.3209   -4.3392    3.6057 O   0  0
    1.7239    1.2251   -1.7350 O   0  0
    3.4364    0.4953    2.0393 O   0  0
    6.6221   -3.5017    5.6327 O   0  0
    6.2801   -3.0212    1.6443 H   0  0
    5.1790   -1.7152    5.6016 H   0  0
    4.8645   -1.2539    0.6698 H   0  0
    3.7639    0.0515    4.6211 H   0  0
    7.2914   -4.3528    7.3982 H   0  0
    8.4579   -4.3703    6.0392 H   0  0
    7.0606   -5.4783    6.0348 H   0  0
   -0.0953    1.2545   -0.7781 H   0  0
    0.7079   -0.3288   -0.8843 H   0  0
    3.5553    0.5673    0.0017 H   0  0
    2.7293   -0.8611    0.6658 H   0  0
    1.6408    2.0264    0.8708 H   0  0
   -0.0275    1.1775    2.0178 H   0  0
    1.1415    0.1085    2.5105 H   0  0
    0.0505   -0.3357    1.3420 H   0  0
    1.2670    1.0655   -2.5763 H   0  0
  1  3  1  0
  1  5  2  0
  2  4  2  0
  2  5  1  0
  3  6  2  0
  4  6  1  0
  5  7  1  0
  6 15  1  0
  7 13  2  0
  7 16  1  0
  8 16  1  0
  9 11  1  0
  9 14  1  0
 10 11  1  0
 10 15  1  0
 11 12  1  0
  1 17  1  0
  2 18  1  0
  3 19  1  0
  4 20  1  0
  8 21  1  0
  8 22  1  0
  8 23  1  0
  9 24  1  0
  9 25  1  0
 10 26  1  0
 10 27  1  0
 11 28  1  0
 12 29  1  0
 12 30  1  0
 12 31  1  0
 14 32  1  0
M  CHG  1  12   1
M  END
> <Name>
BR010450

$$$$
BR010451
  SciTegic05062102053D

 28 28  0  0  1  0            999 V2000
    6.5393    0.9251    0.1330 C   0  0
    7.0813    0.3642    2.4197 C   0  0
    5.1801    0.8648    0.4404 C   0  0
    5.7220    0.3040    2.7271 C   0  0
    7.4899    0.6747    1.1227 C   0  0
    4.7715    0.5543    1.7374 C   0  0
    0.3482   -1.0228    0.5059 C   0  0
    2.5589    0.1059    0.9896 C   0  0
    1.3499   -0.6110    1.5772 C   0  0  2  0  0  0
    8.8737    0.7357    0.8101 N   0  3
    1.8299   -1.8476    2.2677 N   0  3
    9.2203    1.0166   -0.3628 O   0  5
    9.7121    0.5074    1.7153 O   0  0
   -0.1274    0.1350   -0.1698 O   0  0
    3.4364    0.4953    2.0393 O   0  0
    6.8444    1.1685   -0.8817 H   0  0
    7.8115    0.1663    3.2006 H   0  0
    4.4443    1.0612   -0.3347 H   0  0
    5.4099    0.0612    3.7392 H   0  0
   -0.5071   -1.5574    0.9335 H   0  0
    0.8275   -1.6689   -0.2369 H   0  0
    2.2455    1.0134    0.4630 H   0  0
    3.1085   -0.5321    0.2891 H   0  0
    0.8734   -0.0148    2.3629 H   0  0
    1.2312   -2.0633    3.0666 H   0  0
    2.7862   -1.7178    2.6030 H   0  0
    1.8148   -2.6415    1.6252 H   0  0
   -0.7590   -0.1725   -0.8395 H   0  0
  1  3  1  0
  1  5  2  0
  2  4  2  0
  2  5  1  0
  3  6  2  0
  4  6  1  0
  5 10  1  0
  6 15  1  0
  7  9  1  0
  7 14  1  0
  8  9  1  0
  8 15  1  0
  9 11  1  0
 10 12  1  0
 10 13  2  0
  1 16  1  0
  2 17  1  0
  3 18  1  0
  4 19  1  0
  7 20  1  0
  7 21  1  0
  8 22  1  0
  8 23  1  0
  9 24  1  0
 11 25  1  0
 11 26  1  0
 11 27  1  0
 14 28  1  0
M  CHG  3  10   1  11   1  12  -1
M  END
> <Name>
BR010451

$$$$
BR010452
  SciTegic05062102053D

 44 44  0  0  1  0            999 V2000
   -1.0646    3.4068    1.0402 C   0  0
   -2.2061    5.0603   -0.3015 C   0  0
   -2.2825    2.7804    1.3044 C   0  0
   -3.4240    4.4338   -0.0373 C   0  0
   -1.0264    4.5469    0.2373 C   0  0
   -3.4622    3.2938    0.7656 C   0  0
   -5.7415    0.0010   -1.5640 C   0  0
   -7.7065    0.4020   -4.9393 C   0  0
   -7.3370   -1.6360   -3.5430 C   0  0
   -8.6147    0.2934   -2.6040 C   0  0
   -6.0967    0.4567   -2.9699 C   0  0
   -7.1077    1.2524    1.6376 C   0  0
   -4.6210    1.2727    1.2429 C   0  0
   -5.9571    0.6600    0.8273 C   0  0  2  0  0  0
   -7.4361   -0.0981   -3.5103 C   0  0
   -6.1818    0.8744   -0.5841 N   0  0
    0.2133    5.1850   -0.0317 N   0  3
    1.2629    4.7071    0.4627 O   0  5
   -5.1199   -1.0403   -1.3630 O   0  0
    0.2252    6.2090   -0.7566 O   0  0
   -8.2381    0.3919    1.5513 O   0  0
   -4.6582    2.6785    1.0250 O   0  0
   -0.1524    2.9961    1.4661 H   0  0
   -2.1909    5.9484   -0.9285 H   0  0
   -2.3059    1.8924    1.9303 H   0  0
   -4.3397    4.8387   -0.4596 H   0  0
   -7.7854    1.4944   -4.9676 H   0  0
   -6.8973    0.1100   -5.6185 H   0  0
   -8.6348   -0.0140   -5.3448 H   0  0
   -7.1440   -2.0438   -2.5443 H   0  0
   -6.5237   -1.9661   -4.1992 H   0  0
   -8.2666   -2.0849   -3.9109 H   0  0
   -8.4537   -0.0488   -1.5756 H   0  0
   -9.5501   -0.1539   -2.9595 H   0  0
   -8.7648    1.3778   -2.5806 H   0  0
   -6.1217    1.5545   -2.9520 H   0  0
   -5.2772    0.1873   -3.6492 H   0  0
   -7.4013    2.2290    1.2387 H   0  0
   -6.8378    1.3668    2.6931 H   0  0
   -3.7894    0.8532    0.6663 H   0  0
   -4.4327    1.1057    2.3085 H   0  0
   -5.9263   -0.4287    0.9539 H   0  0
   -6.6752    1.7196   -0.8551 H   0  0
   -8.9420    0.8037    2.0772 H   0  0
  1  3  1  0
  1  5  2  0
  2  4  2  0
  2  5  1  0
  3  6  2  0
  4  6  1  0
  5 17  1  0
  6 22  1  0
  7 11  1  0
  7 16  1  0
  7 19  2  0
  8 15  1  0
  9 15  1  0
 10 15  1  0
 11 15  1  0
 12 14  1  0
 12 21  1  0
 13 14  1  0
 13 22  1  0
 14 16  1  0
 17 18  1  0
 17 20  2  0
  1 23  1  0
  2 24  1  0
  3 25  1  0
  4 26  1  0
  8 27  1  0
  8 28  1  0
  8 29  1  0
  9 30  1  0
  9 31  1  0
  9 32  1  0
 10 33  1  0
 10 34  1  0
 10 35  1  0
 11 36  1  0
 11 37  1  0
 12 38  1  0
 12 39  1  0
 13 40  1  0
 13 41  1  0
 14 42  1  0
 16 43  1  0
 21 44  1  0
M  CHG  2  17   1  18  -1
M  END
> <Name>
BR010452

$$$$
BR010453
  SciTegic05062102053D

 45 46  0  0  1  0            999 V2000
   -0.0500    5.7083   -0.2768 C   0  0
    0.5732    5.3900   -1.4834 C   0  0
    0.4354    5.1801    0.9195 C   0  0
    1.6818    4.5435   -1.4937 C   0  0
    1.5440    4.3336    0.9092 C   0  0
   -4.0343    4.1030   -0.4476 C   0  0
   -3.2807    3.6356   -2.6949 C   0  0
   -3.3490    2.9800    0.0158 C   0  0
   -2.5954    2.5126   -2.2316 C   0  0
    2.1672    4.0153   -0.2974 C   0  0
   -4.0002    4.4308   -1.8030 C   0  0
   -2.6296    2.1847   -0.8762 C   0  0
    2.0414    1.1724    0.6606 C   0  0
    3.3646    3.1007   -0.3079 C   0  0
    2.9558    1.6366   -0.4591 C   0  0
   -0.5595   -1.2019    0.6932 C   0  0
   -1.4685    1.1357    0.9147 C   0  0
   -0.2310    0.2488    1.0382 C   0  0  2  0  0  0
    0.8166    0.7393    0.1739 N   0  0
   -4.6979    5.5739   -2.2750 N   0  3
   -5.3392    6.2759   -1.4562 O   0  5
    2.3647    1.1878    1.8453 O   0  0
   -4.6537    5.8510   -3.4980 O   0  0
    0.4537   -2.0529    1.2174 O   0  0
   -1.9565    1.0819   -0.4210 O   0  0
   -0.9124    6.3685   -0.2688 H   0  0
    0.1960    5.8020   -2.4149 H   0  0
   -0.0489    5.4286    1.8592 H   0  0
    2.1609    4.3009   -2.4386 H   0  0
    1.9151    3.9267    1.8461 H   0  0
   -4.5910    4.7146    0.2583 H   0  0
   -3.2460    3.8792   -3.7540 H   0  0
   -3.3791    2.7299    1.0728 H   0  0
   -2.0370    1.8967   -2.9313 H   0  0
    4.0408    3.3924   -1.1219 H   0  0
    3.9404    3.2410    0.6161 H   0  0
    3.8443    0.9928   -0.4638 H   0  0
    2.4339    1.4846   -1.4122 H   0  0
   -0.5874   -1.3464   -0.3919 H   0  0
   -1.5228   -1.5067    1.1167 H   0  0
   -1.2420    2.1789    1.1606 H   0  0
   -2.2666    0.7817    1.5754 H   0  0
    0.1770    0.3132    2.0538 H   0  0
    0.6252    0.7980   -0.8221 H   0  0
    0.2071   -2.9600    0.9768 H   0  0
  1  2  1  0
  1  3  2  0
  2  4  2  0
  3  5  1  0
  4 10  1  0
  5 10  2  0
  6  8  1  0
  6 11  2  0
  7  9  2  0
  7 11  1  0
  8 12  2  0
  9 12  1  0
 10 14  1  0
 11 20  1  0
 12 25  1  0
 13 15  1  0
 13 19  1  0
 13 22  2  0
 14 15  1  0
 16 18  1  0
 16 24  1  0
 17 18  1  0
 17 25  1  0
 18 19  1  0
 20 21  1  0
 20 23  2  0
  1 26  1  0
  2 27  1  0
  3 28  1  0
  4 29  1  0
  5 30  1  0
  6 31  1  0
  7 32  1  0
  8 33  1  0
  9 34  1  0
 14 35  1  0
 14 36  1  0
 15 37  1  0
 15 38  1  0
 16 39  1  0
 16 40  1  0
 17 41  1  0
 17 42  1  0
 18 43  1  0
 19 44  1  0
 24 45  1  0
M  CHG  2  20   1  21  -1
M  END
> <Name>
BR010453

$$$$
BR010454
  SciTegic05062102053D

 43 44  0  0  1  0            999 V2000
    7.6061    4.4032   -4.4672 C   0  0
    6.2414    4.1278   -4.5531 C   0  0
    8.2677    4.2761   -3.2458 C   0  0
    5.5382    3.7254   -3.4177 C   0  0
    7.5645    3.8737   -2.1103 C   0  0
   -1.4424    5.7006    1.6361 C   0  0
   -1.5082    5.6420   -0.7783 C   0  0
   -0.9436    4.3981    1.6542 C   0  0
   -1.0093    4.3395   -0.7602 C   0  0
    6.1998    3.5984   -2.1962 C   0  0
   -1.7248    6.3225    0.4199 C   0  0
   -0.7270    3.7176    0.4561 C   0  0
    5.4574    3.1735   -0.9963 C   0  0
    4.2813    2.5293   -1.0175 C   0  0
    3.6242    2.1387    0.2624 C   0  0
    0.8304   -0.2506    0.6691 C   0  0
    0.6151    2.0944    1.5605 C   0  0
    1.5838    0.9995    1.1177 C   0  0  2  0  0  0
    2.4244    1.4863    0.0432 N   0  0
   -2.2328    7.6483    0.4011 N   0  3
   -2.4206    8.2429    1.4901 O   0  5
    4.1178    2.3828    1.3586 O   0  0
   -2.4797    8.1892   -0.7038 O   0  0
    1.7162   -1.3646    0.6790 O   0  0
   -0.2370    2.4386    0.4739 O   0  0
    8.1538    4.7152   -5.3515 H   0  0
    5.7263    4.2256   -5.5044 H   0  0
    9.3305    4.4893   -3.1790 H   0  0
    4.4747    3.5144   -3.5004 H   0  0
    8.0943    3.7793   -1.1654 H   0  0
   -1.6064    6.2199    2.5772 H   0  0
   -1.7244    6.1145   -1.7333 H   0  0
   -0.7252    3.9191    2.6047 H   0  0
   -0.8430    3.8143   -1.6968 H   0  0
    5.9410    3.4006   -0.0489 H   0  0
    3.7845    2.2671   -1.9455 H   0  0
    0.4553   -0.1323   -0.3528 H   0  0
   -0.0125   -0.4709    1.3332 H   0  0
    1.1473    2.9955    1.8842 H   0  0
   -0.0179    1.7429    2.3817 H   0  0
    2.2717    0.7538    1.9354 H   0  0
    2.1193    1.3421   -0.9137 H   0  0
    1.1997   -2.1332    0.3891 H   0  0
  1  2  1  0
  1  3  2  0
  2  4  2  0
  3  5  1  0
  4 10  1  0
  5 10  2  0
  6  8  1  0
  6 11  2  0
  7  9  2  0
  7 11  1  0
  8 12  2  0
  9 12  1  0
 10 13  1  0
 11 20  1  0
 12 25  1  0
 13 14  2  0
 14 15  1  0
 15 19  1  0
 15 22  2  0
 16 18  1  0
 16 24  1  0
 17 18  1  0
 17 25  1  0
 18 19  1  0
 20 21  1  0
 20 23  2  0
  1 26  1  0
  2 27  1  0
  3 28  1  0
  4 29  1  0
  5 30  1  0
  6 31  1  0
  7 32  1  0
  8 33  1  0
  9 34  1  0
 13 35  1  0
 14 36  1  0
 16 37  1  0
 16 38  1  0
 17 39  1  0
 17 40  1  0
 18 41  1  0
 19 42  1  0
 24 43  1  0
M  CHG  2  20   1  21  -1
M  END
> <Name>
BR010454

$$$$
BR010455
  SciTegic05062102053D

 41 41  0  0  1  0            999 V2000
    1.4549   -0.6300   -2.1985 C   0  0
    3.1263   -1.8480   -3.4475 C   0  0
    1.7240   -1.4123   -1.0755 C   0  0
    3.3954   -2.6304   -2.3245 C   0  0
    2.1560   -0.8479   -3.3845 C   0  0
    2.6942   -2.4125   -1.1384 C   0  0
    5.7830   -1.8596    2.2685 C   0  0
    7.2571   -1.8347    0.2199 C   0  0
    7.9111   -0.5189    2.2391 C   0  0
    8.0271   -3.0128    2.3090 C   0  0
    3.4278   -4.7051    2.3862 C   0  0
    2.7628   -2.5675    1.2337 C   0  0
    3.6997   -3.2082    2.2558 C   0  0  2  0  0  0
    7.2380   -1.8164    1.7560 C   0  0
    5.0748   -2.9851    1.8739 N   0  0
    1.8822   -0.0518   -4.5280 N   0  3
    1.0055    0.8426   -4.4503 O   0  5
    5.3069   -0.9657    2.9688 O   0  0
    2.5246   -0.2642   -5.5846 O   0  0
    3.9832   -5.1813    3.6071 O   0  0
    2.9585   -3.1807   -0.0356 O   0  0
    0.6964    0.1464   -2.1358 H   0  0
    3.6799   -2.0289   -4.3656 H   0  0
    1.1748   -1.2377   -0.1543 H   0  0
    4.1521   -3.4082   -2.3798 H   0  0
    8.2848   -1.8045   -0.1597 H   0  0
    6.7797   -2.7403   -0.1711 H   0  0
    6.7274   -0.9768   -0.2077 H   0  0
    8.9489   -0.4570    1.8912 H   0  0
    7.9223   -0.4588    3.3332 H   0  0
    7.3850    0.3658    1.8620 H   0  0
    9.0667   -3.0140    1.9646 H   0  0
    8.0466   -3.0011    3.4046 H   0  0
    7.5779   -3.9602    1.9895 H   0  0
    3.8996   -5.2583    1.5675 H   0  0
    2.3534   -4.9191    2.3863 H   0  0
    2.9509   -1.4930    1.1336 H   0  0
    1.7165   -2.7186    1.5187 H   0  0
    3.5857   -2.7167    3.2293 H   0  0
    5.5398   -3.6772    1.2958 H   0  0
    3.7887   -6.1309    3.6494 H   0  0
  1  3  1  0
  1  5  2  0
  2  4  2  0
  2  5  1  0
  3  6  2  0
  4  6  1  0
  5 16  1  0
  6 21  1  0
  7 14  1  0
  7 15  1  0
  7 18  2  0
  8 14  1  0
  9 14  1  0
 10 14  1  0
 11 13  1  0
 11 20  1  0
 12 13  1  0
 12 21  1  0
 13 15  1  0
 16 17  1  0
 16 19  2  0
  1 22  1  0
  2 23  1  0
  3 24  1  0
  4 25  1  0
  8 26  1  0
  8 27  1  0
  8 28  1  0
  9 29  1  0
  9 30  1  0
  9 31  1  0
 10 32  1  0
 10 33  1  0
 10 34  1  0
 11 35  1  0
 11 36  1  0
 12 37  1  0
 12 38  1  0
 13 39  1  0
 15 40  1  0
 20 41  1  0
M  CHG  2  16   1  17  -1
M  END
> <Name>
BR010455

$$$$
BR010456
  SciTegic05062102053D

 32 32  0  0  1  0            999 V2000
   -2.0927    4.2146    3.8879 C   0  0
   -0.8223    3.5721    5.8399 C   0  0
   -1.0923    3.6956    3.0660 C   0  0
    0.1781    3.0530    5.0180 C   0  0
   -1.9576    4.1529    5.2748 C   0  0
    0.0431    3.1148    3.6310 C   0  0
    0.6741   -1.1569    1.9573 C   0  0
    0.8229   -2.1764    3.0374 C   0  0
    3.0048    1.5435    0.9897 C   0  0
    0.6151    2.0944    1.5605 C   0  0
    1.5838    0.9995    1.1177 C   0  0  2  0  0  0
    1.5547   -0.0993    2.0610 N   0  0
   -2.9757    4.6814    6.1118 N   0  3
   -3.9890    5.1997    5.5834 O   0  5
   -0.1764   -1.3157    1.0895 O   0  0
   -2.8345    4.6153    7.3568 O   0  0
    3.7784    0.6591    0.1866 O   0  0
    1.0253    2.6050    2.8239 O   0  0
   -2.9727    4.6643    3.4345 H   0  0
   -0.7039    3.5178    6.9193 H   0  0
   -1.2033    3.7463    1.9862 H   0  0
    1.0604    2.6022    5.4641 H   0  0
    0.1899   -1.9575    3.9124 H   0  0
    0.5253   -3.1848    2.7077 H   0  0
    1.8423   -2.2922    3.4391 H   0  0
    3.4856    1.6088    1.9713 H   0  0
    3.0144    2.5348    0.5233 H   0  0
   -0.4074    1.7127    1.6549 H   0  0
    0.6182    2.9259    0.8483 H   0  0
    1.2552    0.5712    0.1633 H   0  0
    2.2119   -0.0911    2.8334 H   0  0
    4.6690    1.0405    0.1315 H   0  0
  1  3  1  0
  1  5  2  0
  2  4  2  0
  2  5  1  0
  3  6  2  0
  4  6  1  0
  5 13  1  0
  6 18  1  0
  7  8  1  0
  7 12  1  0
  7 15  2  0
  9 11  1  0
  9 17  1  0
 10 11  1  0
 10 18  1  0
 11 12  1  0
 13 14  1  0
 13 16  2  0
  1 19  1  0
  2 20  1  0
  3 21  1  0
  4 22  1  0
  8 23  1  0
  8 24  1  0
  8 25  1  0
  9 26  1  0
  9 27  1  0
 10 28  1  0
 10 29  1  0
 11 30  1  0
 12 31  1  0
 17 32  1  0
M  CHG  2  13   1  14  -1
M  END
> <Name>
BR010456

$$$$
BR010457
  SciTegic05062102053D

 39 40  0  0  1  0            999 V2000
    5.7292    3.4647   -3.1969 C   0  0
    5.8994    4.1289   -1.9822 C   0  0
    4.8716    2.3675   -3.2777 C   0  0
    5.2122    3.6959   -0.8482 C   0  0
    4.1844    1.9345   -2.1437 C   0  0
   -1.4424    5.7006    1.6361 C   0  0
   -1.5082    5.6420   -0.7783 C   0  0
   -0.9436    4.3981    1.6542 C   0  0
   -1.0093    4.3395   -0.7602 C   0  0
    4.3547    2.5987   -0.9290 C   0  0
   -1.7248    6.3225    0.4199 C   0  0
   -0.7270    3.7176    0.4561 C   0  0
    3.6228    2.1375    0.2788 C   0  0
    0.8304   -0.2506    0.6691 C   0  0
    0.6151    2.0944    1.5605 C   0  0
    1.5838    0.9995    1.1177 C   0  0  2  0  0  0
    2.4244    1.4863    0.0432 N   0  0
   -2.2328    7.6483    0.4011 N   0  3
   -2.4206    8.2429    1.4901 O   0  5
    4.0928    2.3683    1.3898 O   0  0
   -2.4797    8.1892   -0.7038 O   0  0
    1.7162   -1.3646    0.6790 O   0  0
   -0.2370    2.4386    0.4739 O   0  0
    6.2643    3.8018   -4.0797 H   0  0
    6.5673    4.9830   -1.9194 H   0  0
    4.7389    1.8505   -4.2235 H   0  0
    5.3522    4.2208    0.0933 H   0  0
    3.5189    1.0783   -2.2183 H   0  0
   -1.6064    6.2199    2.5772 H   0  0
   -1.7244    6.1145   -1.7333 H   0  0
   -0.7252    3.9191    2.6047 H   0  0
   -0.8430    3.8143   -1.6968 H   0  0
    0.4553   -0.1323   -0.3528 H   0  0
   -0.0125   -0.4709    1.3332 H   0  0
    1.1473    2.9955    1.8842 H   0  0
   -0.0179    1.7429    2.3817 H   0  0
    2.2717    0.7538    1.9354 H   0  0
    2.0669    1.3862   -0.8997 H   0  0
    1.1997   -2.1332    0.3891 H   0  0
  1  2  1  0
  1  3  2  0
  2  4  2  0
  3  5  1  0
  4 10  1  0
  5 10  2  0
  6  8  1  0
  6 11  2  0
  7  9  2  0
  7 11  1  0
  8 12  2  0
  9 12  1  0
 10 13  1  0
 11 18  1  0
 12 23  1  0
 13 17  1  0
 13 20  2  0
 14 16  1  0
 14 22  1  0
 15 16  1  0
 15 23  1  0
 16 17  1  0
 18 19  1  0
 18 21  2  0
  1 24  1  0
  2 25  1  0
  3 26  1  0
  4 27  1  0
  5 28  1  0
  6 29  1  0
  7 30  1  0
  8 31  1  0
  9 32  1  0
 14 33  1  0
 14 34  1  0
 15 35  1  0
 15 36  1  0
 16 37  1  0
 17 38  1  0
 22 39  1  0
M  CHG  2  18   1  19  -1
M  END
> <Name>
BR010457

$$$$
BR010458
  SciTegic05062102053D

 49 50  0  0  1  0            999 V2000
   -0.1510    4.2663   -0.4546 C   0  0
    0.5633    3.8099    1.8078 C   0  0
   -0.3911    5.5965   -0.1105 C   0  0
    0.3232    5.1402    2.1520 C   0  0
    0.3262    3.3730    0.5046 C   0  0
   -0.1540    6.0335    1.1928 C   0  0
    0.5796    1.9686    0.1413 C   0  0
   -0.0170    0.9044    0.7000 C   0  0
   -0.2459   -0.5115    3.6334 C   0  0
   -2.4195    1.0706    1.1615 C   0  0
   -1.0530    1.0110    1.8030 C   0  0  1  0  0  0
   -2.2589   -1.0072    2.1876 C   0  0
   -1.8398   -2.3826    1.6717 C   0  0
   -3.3201   -1.1270    3.2830 C   0  0
    2.4059   -1.0962    4.5315 C   0  0
    2.6424    1.3824    4.8631 C   0  0
    0.9255    0.1032    6.1762 C   0  0
    1.6695    0.2054    4.8454 C   0  0
   -1.1230   -0.1908    2.6060 N   0  0
   -0.3984    7.3877    1.5431 N   0  3
   -0.8275    8.1749    0.6652 O   0  5
   -0.3092   -1.5333    4.3127 O   0  0
   -0.1788    7.7600    2.7211 O   0  0
   -2.8483   -0.2990    1.0718 O   0  0
    0.7145    0.4506    3.8068 O   0  0
   -0.3405    3.9406   -1.4746 H   0  0
    0.9351    3.1254    2.5665 H   0  0
   -0.7629    6.2824   -0.8677 H   0  0
    0.5122    5.4677    3.1714 H   0  0
    1.3282    1.8097   -0.6318 H   0  0
    0.2167   -0.1034    0.3685 H   0  0
   -3.1336    1.5974    1.8051 H   0  0
   -2.4444    1.5329    0.1701 H   0  0
   -0.8450    1.9003    2.3936 H   0  0
   -1.0855   -2.2711    0.8946 H   0  0
   -2.7037   -2.9006    1.2586 H   0  0
   -1.4266   -2.9726    2.4881 H   0  0
   -3.5999   -0.1353    3.6317 H   0  0
   -2.9225   -1.7017    4.1166 H   0  0
   -4.1997   -1.6299    2.8872 H   0  0
    1.7110   -1.9435    4.5179 H   0  0
    2.9148   -1.0483    3.5633 H   0  0
    3.1510   -1.3199    5.3035 H   0  0
    2.1183    2.3184    5.0880 H   0  0
    3.1087    1.5181    3.8806 H   0  0
    3.4340    1.2412    5.6061 H   0  0
    0.3973    1.0366    6.4016 H   0  0
    0.1964   -0.7135    6.1689 H   0  0
    1.6261   -0.0629    7.0025 H   0  0
  1  3  1  0
  1  5  2  0
  2  4  2  0
  2  5  1  0
  3  6  2  0
  4  6  1  0
  5  7  1  0
  6 20  1  0
  7  8  2  0
  8 11  1  0
  9 19  1  0
  9 22  2  0
  9 25  1  0
 10 11  1  0
 10 24  1  0
 11 19  1  0
 12 13  1  0
 12 14  1  0
 12 19  1  0
 12 24  1  0
 15 18  1  0
 16 18  1  0
 17 18  1  0
 18 25  1  0
 20 21  1  0
 20 23  2  0
  1 26  1  0
  2 27  1  0
  3 28  1  0
  4 29  1  0
  7 30  1  0
  8 31  1  0
 10 32  1  0
 10 33  1  0
 11 34  1  0
 13 35  1  0
 13 36  1  0
 13 37  1  0
 14 38  1  0
 14 39  1  0
 14 40  1  0
 15 41  1  0
 15 42  1  0
 15 43  1  0
 16 44  1  0
 16 45  1  0
 16 46  1  0
 17 47  1  0
 17 48  1  0
 17 49  1  0
M  CHG  2  20   1  21  -1
M  END
> <Name>
BR010458

$$$$
BR010459
  SciTegic05062102053D

 49 50  0  0  1  0            999 V2000
    2.2508    0.5295   -1.1864 C   0  0
    2.7041    2.8828   -0.8808 C   0  0
    3.2172    0.4737   -2.1906 C   0  0
    3.6706    2.8270   -1.8850 C   0  0
    1.9941    1.7341   -0.5315 C   0  0
    3.9272    1.6224   -2.5399 C   0  0
    0.9738    1.7930    0.5285 C   0  0
   -0.0170    0.9044    0.7000 C   0  0
   -0.2459   -0.5115    3.6334 C   0  0
   -2.4195    1.0706    1.1615 C   0  0
   -1.0530    1.0110    1.8030 C   0  0  1  0  0  0
   -2.2589   -1.0072    2.1876 C   0  0
   -1.8398   -2.3826    1.6717 C   0  0
   -3.3201   -1.1270    3.2830 C   0  0
    2.4059   -1.0962    4.5315 C   0  0
    2.6424    1.3824    4.8631 C   0  0
    0.9255    0.1032    6.1762 C   0  0
    1.6695    0.2054    4.8454 C   0  0
   -1.1230   -0.1908    2.6060 N   0  0
    4.9111    1.5656   -3.5621 N   0  3
    5.1264    0.4721   -4.1387 O   0  5
   -0.3092   -1.5333    4.3127 O   0  0
    5.5380    2.6105   -3.8612 O   0  0
   -2.8483   -0.2990    1.0718 O   0  0
    0.7145    0.4506    3.8068 O   0  0
    1.7056   -0.3744   -0.9252 H   0  0
    2.5153    3.8291   -0.3794 H   0  0
    3.4074   -0.4716   -2.6930 H   0  0
    4.2168    3.7298   -2.1475 H   0  0
    1.0416    2.6455    1.2009 H   0  0
   -0.1262    0.0555    0.0310 H   0  0
   -3.1336    1.5974    1.8051 H   0  0
   -2.4444    1.5329    0.1701 H   0  0
   -0.8450    1.9003    2.3936 H   0  0
   -1.0855   -2.2711    0.8946 H   0  0
   -2.7037   -2.9006    1.2586 H   0  0
   -1.4266   -2.9726    2.4881 H   0  0
   -3.5999   -0.1353    3.6317 H   0  0
   -2.9225   -1.7017    4.1166 H   0  0
   -4.1997   -1.6299    2.8872 H   0  0
    1.7110   -1.9435    4.5179 H   0  0
    2.9148   -1.0483    3.5633 H   0  0
    3.1510   -1.3199    5.3035 H   0  0
    2.1183    2.3184    5.0880 H   0  0
    3.1087    1.5181    3.8806 H   0  0
    3.4340    1.2412    5.6061 H   0  0
    0.3973    1.0366    6.4016 H   0  0
    0.1964   -0.7135    6.1689 H   0  0
    1.6261   -0.0629    7.0025 H   0  0
  1  3  1  0
  1  5  2  0
  2  4  2  0
  2  5  1  0
  3  6  2  0
  4  6  1  0
  5  7  1  0
  6 20  1  0
  7  8  2  0
  8 11  1  0
  9 19  1  0
  9 22  2  0
  9 25  1  0
 10 11  1  0
 10 24  1  0
 11 19  1  0
 12 13  1  0
 12 14  1  0
 12 19  1  0
 12 24  1  0
 15 18  1  0
 16 18  1  0
 17 18  1  0
 18 25  1  0
 20 21  1  0
 20 23  2  0
  1 26  1  0
  2 27  1  0
  3 28  1  0
  4 29  1  0
  7 30  1  0
  8 31  1  0
 10 32  1  0
 10 33  1  0
 11 34  1  0
 13 35  1  0
 13 36  1  0
 13 37  1  0
 14 38  1  0
 14 39  1  0
 14 40  1  0
 15 41  1  0
 15 42  1  0
 15 43  1  0
 16 44  1  0
 16 45  1  0
 16 46  1  0
 17 47  1  0
 17 48  1  0
 17 49  1  0
M  CHG  2  20   1  21  -1
M  END
> <Name>
BR010459

$$$$
BR010460
  SciTegic05062102053D

 55 56  0  0  1  0            999 V2000
   -5.8886    0.9436    3.3400 C   0  0
   -6.6257   -0.8991    1.9622 C   0  0
   -4.5688    0.5102    3.2135 C   0  0
   -5.3059   -1.3324    1.8357 C   0  0
   -6.9170    0.2389    2.7144 C   0  0
   -4.2774   -0.6277    2.4614 C   0  0
   -8.2935    0.6901    2.8452 C   0  0
    0.5585    1.1750    0.3874 C   0  0
   -0.6157   -2.2720    0.3126 C   0  0
   -0.7213   -0.9175    0.9861 C   0  0  2  0  0  0
    0.1378   -0.7189   -1.2321 C   0  0
    1.5899   -1.0343   -1.5983 C   0  0
   -0.5536    0.0641   -2.3466 C   0  0
    0.2091    3.8850    1.2333 C   0  0
    0.4335    2.9906    3.5698 C   0  0
    2.3472    2.7723    1.9579 C   0  0
  -10.5458    0.2183    2.2157 C   0  0
   -2.8504   -1.0951    2.3240 C   0  0
   -2.1730   -0.4586    1.1118 C   0  0
    0.8267    2.7943    2.1072 C   0  0
    0.0232   -0.0670    0.0714 N   0  0
   -8.6453    1.6865    3.4904 O   0  0
    1.1861    1.8843   -0.3953 O   0  0
   -0.5687   -1.9754   -1.0924 O   0  0
   -9.1567   -0.1240    2.1639 O   0  0
    0.3090    1.5267    1.6878 O   0  0
   -6.1049    1.8315    3.9283 H   0  0
   -7.4189   -1.4561    1.4704 H   0  0
   -3.7738    1.0655    3.7041 H   0  0
   -5.0878   -2.2199    1.2472 H   0  0
    0.3183   -2.7789    0.5811 H   0  0
   -1.4514   -2.9443    0.5259 H   0  0
   -0.2573   -0.9241    1.9779 H   0  0
    2.0585   -1.5911   -0.7899 H   0  0
    2.1361   -0.1077   -1.7598 H   0  0
    1.6168   -1.6304   -2.5077 H   0  0
   -1.5833    0.2765   -2.0641 H   0  0
   -0.5489   -0.5199   -3.2654 H   0  0
   -0.0295    1.0029   -2.5177 H   0  0
    0.4889    3.7476    0.1827 H   0  0
   -0.8835    3.8885    1.3046 H   0  0
    0.5780    4.8751    1.5246 H   0  0
    0.8744    2.2102    4.2005 H   0  0
   -0.6524    2.9124    3.6959 H   0  0
    0.7571    3.9658    3.9477 H   0  0
    2.7904    1.9900    2.5846 H   0  0
    2.6480    2.5955    0.9201 H   0  0
    2.7851    3.7203    2.2907 H   0  0
  -11.1223   -0.5061    1.6352 H   0  0
  -10.6897    1.2232    1.8106 H   0  0
  -10.8789    0.1959    3.2560 H   0  0
   -2.2910   -0.8510    3.2364 H   0  0
   -2.8253   -2.1890    2.2351 H   0  0
   -2.7062   -0.7227    0.1932 H   0  0
   -2.1912    0.6327    1.1923 H   0  0
  1  3  1  0
  1  5  2  0
  2  4  2  0
  2  5  1  0
  3  6  2  0
  4  6  1  0
  5  7  1  0
  6 18  1  0
  7 22  2  0
  7 25  1  0
  8 21  1  0
  8 23  2  0
  8 26  1  0
  9 10  1  0
  9 24  1  0
 10 19  1  0
 10 21  1  0
 11 12  1  0
 11 13  1  0
 11 21  1  0
 11 24  1  0
 14 20  1  0
 15 20  1  0
 16 20  1  0
 17 25  1  0
 18 19  1  0
 20 26  1  0
  1 27  1  0
  2 28  1  0
  3 29  1  0
  4 30  1  0
  9 31  1  0
  9 32  1  0
 10 33  1  0
 12 34  1  0
 12 35  1  0
 12 36  1  0
 13 37  1  0
 13 38  1  0
 13 39  1  0
 14 40  1  0
 14 41  1  0
 14 42  1  0
 15 43  1  0
 15 44  1  0
 15 45  1  0
 16 46  1  0
 16 47  1  0
 16 48  1  0
 17 49  1  0
 17 50  1  0
 17 51  1  0
 18 52  1  0
 18 53  1  0
 19 54  1  0
 19 55  1  0
M  END
> <Name>
BR010460

$$$$
BR010461
  SciTegic05062102053D

 49 50  0  0  1  0            999 V2000
   -6.1535    0.9088    1.3173 C   0  0
   -6.8335   -0.3480    3.2654 C   0  0
   -4.8776    0.3518    1.4032 C   0  0
   -5.5576   -0.9051    3.3513 C   0  0
   -7.1315    0.5590    2.2484 C   0  0
   -4.5797   -0.5552    2.4202 C   0  0
    0.5585    1.1750    0.3874 C   0  0
   -0.6157   -2.2720    0.3126 C   0  0
   -0.7213   -0.9175    0.9861 C   0  0  2  0  0  0
    0.1378   -0.7189   -1.2321 C   0  0
    1.5899   -1.0343   -1.5983 C   0  0
   -0.5536    0.0641   -2.3466 C   0  0
    0.2091    3.8850    1.2333 C   0  0
    0.4335    2.9906    3.5698 C   0  0
    2.3472    2.7723    1.9579 C   0  0
   -2.1730   -0.4586    1.1118 C   0  0
    0.8267    2.7943    2.1072 C   0  0
    0.0232   -0.0670    0.0714 N   0  0
   -8.4305    1.1256    2.1603 N   0  3
   -8.6778    1.9389    1.2373 O   0  5
    1.1861    1.8843   -0.3953 O   0  0
   -9.2957    0.7972    3.0076 O   0  0
   -0.5687   -1.9754   -1.0924 O   0  0
    0.3090    1.5267    1.6878 O   0  0
   -2.9628   -1.2604    2.5291 S   0  0
   -6.3712    1.6148    0.5195 H   0  0
   -7.5865   -0.6295    3.9975 H   0  0
   -4.1280    0.6367    0.6690 H   0  0
   -5.3432   -1.6096    4.1515 H   0  0
    0.3183   -2.7789    0.5811 H   0  0
   -1.4514   -2.9443    0.5259 H   0  0
   -0.2573   -0.9241    1.9779 H   0  0
    2.0585   -1.5911   -0.7899 H   0  0
    2.1361   -0.1077   -1.7598 H   0  0
    1.6168   -1.6304   -2.5077 H   0  0
   -1.5833    0.2765   -2.0641 H   0  0
   -0.5489   -0.5199   -3.2654 H   0  0
   -0.0295    1.0029   -2.5177 H   0  0
    0.4889    3.7476    0.1827 H   0  0
   -0.8835    3.8885    1.3046 H   0  0
    0.5780    4.8751    1.5246 H   0  0
    0.8744    2.2102    4.2005 H   0  0
   -0.6524    2.9124    3.6959 H   0  0
    0.7571    3.9658    3.9477 H   0  0
    2.7904    1.9900    2.5846 H   0  0
    2.6480    2.5955    0.9201 H   0  0
    2.7851    3.7203    2.2907 H   0  0
   -2.7202   -0.7141    0.2037 H   0  0
   -2.2069    0.6230    1.2464 H   0  0
  1  3  1  0
  1  5  2  0
  2  4  2  0
  2  5  1  0
  3  6  2  0
  4  6  1  0
  5 19  1  0
  6 25  1  0
  7 18  1  0
  7 21  2  0
  7 24  1  0
  8  9  1  0
  8 23  1  0
  9 16  1  0
  9 18  1  0
 10 11  1  0
 10 12  1  0
 10 18  1  0
 10 23  1  0
 13 17  1  0
 14 17  1  0
 15 17  1  0
 16 25  1  0
 17 24  1  0
 19 20  1  0
 19 22  2  0
  1 26  1  0
  2 27  1  0
  3 28  1  0
  4 29  1  0
  8 30  1  0
  8 31  1  0
  9 32  1  0
 11 33  1  0
 11 34  1  0
 11 35  1  0
 12 36  1  0
 12 37  1  0
 12 38  1  0
 13 39  1  0
 13 40  1  0
 13 41  1  0
 14 42  1  0
 14 43  1  0
 14 44  1  0
 15 45  1  0
 15 46  1  0
 15 47  1  0
 16 48  1  0
 16 49  1  0
M  CHG  2  19   1  20  -1
M  END
> <Name>
BR010461

$$$$
BR010462
  SciTegic05062102053D

 49 50  0  0  1  0            999 V2000
    1.7309    3.7897   -0.9450 C   0  0
    2.0015    1.4322   -1.3992 C   0  0
    2.6775    4.0872   -1.9252 C   0  0
    2.9482    1.7298   -2.3795 C   0  0
    1.3929    2.4621   -0.6820 C   0  0
    3.2862    3.0573   -2.6425 C   0  0
   -0.0170    0.9044    0.7000 C   0  0
   -0.2459   -0.5115    3.6334 C   0  0
   -2.4195    1.0706    1.1615 C   0  0
   -1.0530    1.0110    1.8030 C   0  0  1  0  0  0
   -2.2589   -1.0072    2.1876 C   0  0
   -1.8398   -2.3826    1.6717 C   0  0
   -3.3201   -1.1270    3.2830 C   0  0
    2.4059   -1.0962    4.5315 C   0  0
    2.6424    1.3824    4.8631 C   0  0
    0.9255    0.1032    6.1762 C   0  0
    1.6695    0.2054    4.8454 C   0  0
   -1.1230   -0.1908    2.6060 N   0  0
    0.4324    2.1603    0.3125 N   0  0
    4.2498    3.3602   -3.6404 N   0  3
    4.5395    4.5610   -3.8614 O   0  5
    0.3267   -0.1899    0.2648 O   0  0
   -0.3092   -1.5333    4.3127 O   0  0
    4.7856    2.4188   -4.2737 O   0  0
   -2.8483   -0.2990    1.0718 O   0  0
    0.7145    0.4506    3.8068 O   0  0
    1.2628    4.6003   -0.3922 H   0  0
    1.7458    0.3941   -1.2026 H   0  0
    2.9318    5.1262   -2.1202 H   0  0
    3.4150    0.9174   -2.9311 H   0  0
   -3.1348    1.6033    1.7980 H   0  0
   -2.4280    1.5220    0.1651 H   0  0
   -0.8345    1.9169    2.3954 H   0  0
   -1.0855   -2.2712    0.8946 H   0  0
   -2.7037   -2.9007    1.2585 H   0  0
   -1.4266   -2.9728    2.4881 H   0  0
   -3.5999   -0.1353    3.6316 H   0  0
   -2.9225   -1.7017    4.1165 H   0  0
   -4.1997   -1.6299    2.8871 H   0  0
    1.7110   -1.9435    4.5179 H   0  0
    2.9148   -1.0483    3.5633 H   0  0
    3.1510   -1.3199    5.3035 H   0  0
    2.1183    2.3184    5.0880 H   0  0
    3.1087    1.5181    3.8806 H   0  0
    3.4340    1.2412    5.6061 H   0  0
    0.3973    1.0366    6.4016 H   0  0
    0.1964   -0.7135    6.1689 H   0  0
    1.6261   -0.0629    7.0025 H   0  0
    0.0336    2.9649    0.7917 H   0  0
  1  3  1  0
  1  5  2  0
  2  4  2  0
  2  5  1  0
  3  6  2  0
  4  6  1  0
  5 19  1  0
  6 20  1  0
  7 10  1  0
  7 19  1  0
  7 22  2  0
  8 18  1  0
  8 23  2  0
  8 26  1  0
  9 10  1  0
  9 25  1  0
 10 18  1  0
 11 12  1  0
 11 13  1  0
 11 18  1  0
 11 25  1  0
 14 17  1  0
 15 17  1  0
 16 17  1  0
 17 26  1  0
 20 21  1  0
 20 24  2  0
  1 27  1  0
  2 28  1  0
  3 29  1  0
  4 30  1  0
  9 31  1  0
  9 32  1  0
 10 33  1  0
 12 34  1  0
 12 35  1  0
 12 36  1  0
 13 37  1  0
 13 38  1  0
 13 39  1  0
 14 40  1  0
 14 41  1  0
 14 42  1  0
 15 43  1  0
 15 44  1  0
 15 45  1  0
 16 46  1  0
 16 47  1  0
 16 48  1  0
 19 49  1  0
M  CHG  2  20   1  21  -1
M  END
> <Name>
BR010462

$$$$
BR010463
  SciTegic05062102053D

 69 72  0  0  1  0            999 V2000
   -1.3020    4.6286   -0.4806 C   0  0
   -7.3384    0.1290   -0.3508 C   0  0
   -1.0867   -2.0596   -3.9310 C   0  0
   -1.5131    3.9851    0.7388 C   0  0
   -1.5404    3.9519   -1.6768 C   0  0
   -6.6767    0.7450   -1.4130 C   0  0
   -6.6064   -0.4333    0.6950 C   0  0
   -0.3570   -1.0027   -3.3869 C   0  0
   -2.3317   -2.3947   -3.3984 C   0  0
   -1.9624    2.6647    0.7620 C   0  0
   -1.9897    2.6316   -1.6536 C   0  0
   -5.2829    0.7985   -1.4295 C   0  0
   -5.2126   -0.3798    0.6785 C   0  0
   -0.8721   -0.2809   -2.3102 C   0  0
   -2.8467   -1.6728   -2.3217 C   0  0
   -2.2007    1.9880   -0.4343 C   0  0
   -4.5509    0.2361   -0.3838 C   0  0
   -2.1170   -0.6159   -1.7776 C   0  0
   -0.6615   -3.1637    2.1377 C   0  0
    0.2505    0.2301    1.1804 C   0  0
   -0.7213   -0.9175    0.9861 C   0  0  2  0  0  0
    0.3991   -1.0759    3.0879 C   0  0
    1.8318   -1.5933    3.2353 C   0  0
   -0.3134   -1.0350    4.4384 C   0  0
   -2.5977   -5.2670    2.2319 C   0  0
   -2.4963   -5.2228   -0.2775 C   0  0
   -0.4435   -5.8057    1.0471 C   0  0
   -2.1730   -0.4586    1.1118 C   0  0
   -1.7227   -4.9706    1.0148 C   0  0
   -0.3546   -1.8107    2.0734 N   0  0
   -0.3455   -3.9080    3.0628 O   0  0
    0.4660    0.2860    2.5998 O   0  0
   -1.3631   -3.5847    1.0389 O   0  0
   -2.7738    0.3045   -0.4047 P   0  3
   -0.9521    5.6567   -0.4984 H   0  0
   -8.4236    0.0873   -0.3381 H   0  0
   -0.6855   -2.6216   -4.7693 H   0  0
   -1.3272    4.5118    1.6702 H   0  0
   -1.3763    4.4533   -2.6262 H   0  0
   -7.2465    1.1825   -2.2274 H   0  0
   -7.1217   -0.9126    1.5222 H   0  0
    0.6124   -0.7421   -3.8014 H   0  0
   -2.8999   -3.2174   -3.8223 H   0  0
   -2.1248    2.1675    1.7140 H   0  0
   -2.1744    2.1089   -2.5878 H   0  0
   -4.7720    1.2788   -2.2591 H   0  0
   -4.6469   -0.8187    1.4953 H   0  0
   -0.2999    0.5411   -1.8896 H   0  0
   -3.8168   -1.9372   -1.9106 H   0  0
    1.2141    0.0219    0.7015 H   0  0
   -0.1177    1.1944    0.8190 H   0  0
   -0.5793   -1.4051    0.0159 H   0  0
    2.3161   -1.6125    2.2615 H   0  0
    1.8169   -2.5992    3.6488 H   0  0
    2.3904   -0.9393    3.9013 H   0  0
   -1.3288   -0.6644    4.3086 H   0  0
    0.2229   -0.3755    5.1185 H   0  0
   -0.3505   -2.0354    4.8663 H   0  0
   -2.0460   -5.0872    3.1616 H   0  0
   -3.5017   -4.6493    2.2389 H   0  0
   -2.8985   -6.3208    2.2499 H   0  0
   -1.8722   -5.0114   -1.1533 H   0  0
   -3.3642   -4.5574   -0.3490 H   0  0
   -2.8466   -6.2580   -0.3432 H   0  0
    0.1843   -5.5933    0.1742 H   0  0
    0.1432   -5.6102    1.9505 H   0  0
   -0.6759   -6.8761    1.0077 H   0  0
   -2.2529    0.2622    1.9256 H   0  0
   -2.8018   -1.3171    1.3485 H   0  0
  1  4  2  0
  1  5  1  0
  2  6  2  0
  2  7  1  0
  3  8  2  0
  3  9  1  0
  4 10  1  0
  5 11  2  0
  6 12  1  0
  7 13  2  0
  8 14  1  0
  9 15  2  0
 10 16  2  0
 11 16  1  0
 12 17  2  0
 13 17  1  0
 14 18  2  0
 15 18  1  0
 16 34  1  0
 17 34  1  0
 18 34  1  0
 19 30  1  0
 19 31  2  0
 19 33  1  0
 20 21  1  0
 20 32  1  0
 21 28  1  0
 21 30  1  0
 22 23  1  0
 22 24  1  0
 22 30  1  0
 22 32  1  0
 25 29  1  0
 26 29  1  0
 27 29  1  0
 28 34  1  0
 29 33  1  0
  1 35  1  0
  2 36  1  0
  3 37  1  0
  4 38  1  0
  5 39  1  0
  6 40  1  0
  7 41  1  0
  8 42  1  0
  9 43  1  0
 10 44  1  0
 11 45  1  0
 12 46  1  0
 13 47  1  0
 14 48  1  0
 15 49  1  0
 20 50  1  0
 20 51  1  0
 21 52  1  0
 23 53  1  0
 23 54  1  0
 23 55  1  0
 24 56  1  0
 24 57  1  0
 24 58  1  0
 25 59  1  0
 25 60  1  0
 25 61  1  0
 26 62  1  0
 26 63  1  0
 26 64  1  0
 27 65  1  0
 27 66  1  0
 27 67  1  0
 28 68  1  0
 28 69  1  0
M  CHG  1  34   1
M  END
> <Name>
BR010463

$$$$
BR010464
  SciTegic05062102053D

 16 16  0  0  0  0            999 V2000
    1.8851   -1.0363   -0.1124 C   0  0
    2.8783   -1.6520    2.0022 C   0  0
    0.8066   -0.4630    0.5610 C   0  0
    1.7997   -1.0786    2.6757 C   0  0
    2.9210   -1.6309    0.6081 C   0  0
    0.7638   -0.4841    1.9551 C   0  0
    4.0457   -2.2282   -0.0940 C   0  0
   -0.3343    0.0990    2.6405 N   0  3
   -1.2560    0.6282    1.9733 O   0  5
    4.9921   -2.7683    0.4855 O   0  0
   -0.3536    0.0690    3.8948 O   0  0
    1.9084   -1.0141   -1.1990 H   0  0
    3.6804   -2.1122    2.5736 H   0  0
    0.0055   -0.0033   -0.0127 H   0  0
    1.7791   -1.1016    3.7625 H   0  0
    4.0356   -2.1866   -1.2051 H   0  0
  1  3  2  0
  1  5  1  0
  2  4  1  0
  2  5  2  0
  3  6  1  0
  4  6  2  0
  5  7  1  0
  6  8  1  0
  7 10  2  0
  8  9  1  0
  8 11  2  0
  1 12  1  0
  2 13  1  0
  3 14  1  0
  4 15  1  0
  7 16  1  0
M  CHG  2   8   1   9  -1
M  END
> <Name>
BR010464

$$$$
BR010465
  SciTegic05062102053D

 35 35  0  0  1  0            999 V2000
   -0.0170    0.9044    0.7000 C   0  0
   -0.2459   -0.5115    3.6334 C   0  0
   -2.4195    1.0706    1.1615 C   0  0
   -1.0530    1.0110    1.8030 C   0  0  1  0  0  0
   -2.2589   -1.0072    2.1876 C   0  0
   -1.8398   -2.3826    1.6717 C   0  0
   -3.3201   -1.1270    3.2830 C   0  0
    2.4059   -1.0962    4.5315 C   0  0
    2.6424    1.3824    4.8631 C   0  0
    0.9255    0.1032    6.1762 C   0  0
    1.6695    0.2054    4.8454 C   0  0
   -1.1230   -0.1908    2.6060 N   0  0
    0.1449    1.7631   -0.1607 O   0  0
   -0.3092   -1.5333    4.3127 O   0  0
   -2.8483   -0.2990    1.0718 O   0  0
    0.7145    0.4506    3.8068 O   0  0
    0.5995   -0.0103    0.7120 H   0  0
   -3.1348    1.6033    1.7980 H   0  0
   -2.4280    1.5220    0.1651 H   0  0
   -0.8345    1.9169    2.3954 H   0  0
   -1.0855   -2.2712    0.8946 H   0  0
   -2.7037   -2.9007    1.2585 H   0  0
   -1.4266   -2.9728    2.4881 H   0  0
   -3.5999   -0.1353    3.6316 H   0  0
   -2.9225   -1.7017    4.1165 H   0  0
   -4.1997   -1.6299    2.8871 H   0  0
    1.7110   -1.9435    4.5179 H   0  0
    2.9148   -1.0483    3.5633 H   0  0
    3.1510   -1.3199    5.3035 H   0  0
    2.1183    2.3184    5.0880 H   0  0
    3.1087    1.5181    3.8806 H   0  0
    3.4340    1.2412    5.6061 H   0  0
    0.3973    1.0366    6.4016 H   0  0
    0.1964   -0.7135    6.1689 H   0  0
    1.6261   -0.0629    7.0025 H   0  0
  1  4  1  0
  1 13  2  0
  2 12  1  0
  2 14  2  0
  2 16  1  0
  3  4  1  0
  3 15  1  0
  4 12  1  0
  5  6  1  0
  5  7  1  0
  5 12  1  0
  5 15  1  0
  8 11  1  0
  9 11  1  0
 10 11  1  0
 11 16  1  0
  1 17  1  0
  3 18  1  0
  3 19  1  0
  4 20  1  0
  6 21  1  0
  6 22  1  0
  6 23  1  0
  7 24  1  0
  7 25  1  0
  7 26  1  0
  8 27  1  0
  8 28  1  0
  8 29  1  0
  9 30  1  0
  9 31  1  0
  9 32  1  0
 10 33  1  0
 10 34  1  0
 10 35  1  0
M  END
> <Name>
BR010465

$$$$
BR010466
  SciTegic05062102053D

 50 53  0  0  0  0            999 V2000
    8.5550   -1.4494   -3.0125 C   0  0
    7.0490   -4.9220    3.5062 C   0  0
    5.1604    2.3137    2.5657 C   0  0
    9.0316   -1.8358   -1.7599 C   0  0
    7.2031   -1.1511   -3.1828 C   0  0
    6.7570   -5.2775    2.1895 C   0  0
    6.9258   -3.5936    3.9137 C   0  0
    6.0003    2.1940    1.4585 C   0  0
    4.4824    1.1955    3.0510 C   0  0
    3.0133   -3.5014    1.7703 C   0  0
    2.0545   -1.3909    1.0895 C   0  0
    2.0319   -3.6304    2.7530 C   0  0
    1.0730   -1.5199    2.0722 C   0  0
    8.1562   -1.9241   -0.6775 C   0  0
    6.3277   -1.2394   -2.1004 C   0  0
    6.3418   -4.3047    1.2801 C   0  0
    6.5106   -2.6208    3.0044 C   0  0
    6.1620    0.9560    0.8365 C   0  0
    4.6442   -0.0425    2.4290 C   0  0
    3.0247   -2.3817    0.9386 C   0  0
    1.0617   -2.6396    2.9040 C   0  0
    6.8043   -1.6259   -0.8477 C   0  0
    6.2186   -2.9764    1.6875 C   0  0
    5.4840   -0.1623    1.3218 C   0  0
    4.0741   -2.2439   -0.1120 C   0  0
    0.0628   -2.7707    3.9046 N   0  3
    0.0708   -3.7856    4.6425 O   0  5
   -0.8004   -1.8679    4.0238 O   0  0
    5.6899   -1.7381    0.5301 P   0  3
    9.2367   -1.3808   -3.8553 H   0  0
    7.3724   -5.6795    4.2142 H   0  0
    5.0345    3.2778    3.0499 H   0  0
   10.0841   -2.0684   -1.6274 H   0  0
    6.8322   -0.8500   -4.1582 H   0  0
    6.8532   -6.3117    1.8721 H   0  0
    7.1529   -3.3170    4.9391 H   0  0
    6.5279    3.0647    1.0805 H   0  0
    3.8288    1.2888    3.9133 H   0  0
    3.7653   -4.2783    1.6600 H   0  0
    2.0552   -0.5150    0.4462 H   0  0
    2.0346   -4.5081    3.3947 H   0  0
    0.3226   -0.7404    2.1794 H   0  0
    8.5319   -2.2259    0.2960 H   0  0
    5.2758   -1.0057   -2.2378 H   0  0
    6.1159   -4.5863    0.2556 H   0  0
    6.4157   -1.5878    3.3264 H   0  0
    6.8167    0.8678   -0.0258 H   0  0
    4.1144   -0.9105    2.8108 H   0  0
    4.2049   -3.1925   -0.6525 H   0  0
    3.7640   -1.5097   -0.8696 H   0  0
  1  4  2  0
  1  5  1  0
  2  6  2  0
  2  7  1  0
  3  8  2  0
  3  9  1  0
  4 14  1  0
  5 15  2  0
  6 16  1  0
  7 17  2  0
  8 18  1  0
  9 19  2  0
 10 12  2  0
 10 20  1  0
 11 13  1  0
 11 20  2  0
 12 21  1  0
 13 21  2  0
 14 22  2  0
 15 22  1  0
 16 23  2  0
 17 23  1  0
 18 24  2  0
 19 24  1  0
 20 25  1  0
 21 26  1  0
 22 29  1  0
 23 29  1  0
 24 29  1  0
 25 29  1  0
 26 27  1  0
 26 28  2  0
  1 30  1  0
  2 31  1  0
  3 32  1  0
  4 33  1  0
  5 34  1  0
  6 35  1  0
  7 36  1  0
  8 37  1  0
  9 38  1  0
 10 39  1  0
 11 40  1  0
 12 41  1  0
 13 42  1  0
 14 43  1  0
 15 44  1  0
 16 45  1  0
 17 46  1  0
 18 47  1  0
 19 48  1  0
 25 49  1  0
 25 50  1  0
M  CHG  3  26   1  27  -1  29   1
M  END
> <Name>
BR010466

$$$$
BR010467
  SciTegic05062102053D

 36 36  0  0  1  0            999 V2000
    0.5585    1.1750    0.3874 C   0  0
   -0.6157   -2.2720    0.3126 C   0  0
   -0.7213   -0.9175    0.9861 C   0  0  2  0  0  0
    0.1378   -0.7189   -1.2321 C   0  0
    1.5899   -1.0343   -1.5983 C   0  0
   -0.5536    0.0641   -2.3466 C   0  0
    0.2091    3.8850    1.2333 C   0  0
    0.4335    2.9906    3.5698 C   0  0
    2.3472    2.7723    1.9579 C   0  0
   -2.1730   -0.4586    1.1118 C   0  0
    0.8267    2.7943    2.1072 C   0  0
    0.0232   -0.0670    0.0714 N   0  0
    1.1861    1.8843   -0.3953 O   0  0
   -0.5687   -1.9754   -1.0924 O   0  0
    0.3090    1.5267    1.6878 O   0  0
   -3.1057   -1.3698    2.7942 I   0  0
    0.3183   -2.7789    0.5811 H   0  0
   -1.4514   -2.9443    0.5259 H   0  0
   -0.2573   -0.9241    1.9779 H   0  0
    2.0585   -1.5911   -0.7899 H   0  0
    2.1361   -0.1077   -1.7598 H   0  0
    1.6168   -1.6304   -2.5077 H   0  0
   -1.5833    0.2765   -2.0641 H   0  0
   -0.5489   -0.5199   -3.2654 H   0  0
   -0.0295    1.0029   -2.5177 H   0  0
    0.4889    3.7476    0.1827 H   0  0
   -0.8835    3.8885    1.3046 H   0  0
    0.5780    4.8751    1.5246 H   0  0
    0.8744    2.2102    4.2005 H   0  0
   -0.6524    2.9124    3.6959 H   0  0
    0.7571    3.9658    3.9477 H   0  0
    2.7904    1.9900    2.5846 H   0  0
    2.6480    2.5955    0.9201 H   0  0
    2.7851    3.7203    2.2907 H   0  0
   -2.7107   -0.7195    0.1974 H   0  0
   -2.1969    0.6289    1.2121 H   0  0
  1 12  1  0
  1 13  2  0
  1 15  1  0
  2  3  1  0
  2 14  1  0
  3 10  1  0
  3 12  1  0
  4  5  1  0
  4  6  1  0
  4 12  1  0
  4 14  1  0
  7 11  1  0
  8 11  1  0
  9 11  1  0
 10 16  1  0
 11 15  1  0
  2 17  1  0
  2 18  1  0
  3 19  1  0
  5 20  1  0
  5 21  1  0
  5 22  1  0
  6 23  1  0
  6 24  1  0
  6 25  1  0
  7 26  1  0
  7 27  1  0
  7 28  1  0
  8 29  1  0
  8 30  1  0
  8 31  1  0
  9 32  1  0
  9 33  1  0
  9 34  1  0
 10 35  1  0
 10 36  1  0
M  END
> <Name>
BR010467

$$$$
BR010468
  SciTegic05062102053D

 18 18  0  0  0  0            999 V2000
    1.8851   -1.0363   -0.1124 C   0  0
    2.8783   -1.6520    2.0022 C   0  0
    0.8066   -0.4630    0.5610 C   0  0
    1.7997   -1.0786    2.6757 C   0  0
    2.9210   -1.6309    0.6081 C   0  0
    0.7638   -0.4841    1.9551 C   0  0
    4.0741   -2.2439   -0.1120 C   0  0
   -0.3344    0.0992    2.6406 N   0  3
   -1.2559    0.6285    1.9735 O   0  5
   -0.3534    0.0690    3.8949 O   0  0
    3.6717   -3.4850   -0.6783 O   0  0
    1.9099   -1.0152   -1.1987 H   0  0
    3.6807   -2.1128    2.5721 H   0  0
    0.0057   -0.0030   -0.0127 H   0  0
    1.7787   -1.1019    3.7625 H   0  0
    4.4360   -1.5913   -0.9183 H   0  0
    4.9172   -2.4235    0.5691 H   0  0
    4.4474   -3.8479   -1.1349 H   0  0
  1  3  2  0
  1  5  1  0
  2  4  1  0
  2  5  2  0
  3  6  1  0
  4  6  2  0
  5  7  1  0
  6  8  1  0
  7 11  1  0
  8  9  1  0
  8 10  2  0
  1 12  1  0
  2 13  1  0
  3 14  1  0
  4 15  1  0
  7 16  1  0
  7 17  1  0
 11 18  1  0
M  CHG  2   8   1   9  -1
M  END
> <Name>
BR010468

$$$$
BR010469
  SciTegic05062102053D

 17 17  0  0  0  0            999 V2000
    1.8851   -1.0363   -0.1124 C   0  0
    2.8783   -1.6520    2.0022 C   0  0
    0.8066   -0.4630    0.5610 C   0  0
    1.7997   -1.0786    2.6757 C   0  0
    2.9210   -1.6309    0.6081 C   0  0
    0.7638   -0.4841    1.9551 C   0  0
    4.0741   -2.2439   -0.1120 C   0  0
   -0.3344    0.0992    2.6406 N   0  3
   -1.2559    0.6285    1.9735 O   0  5
   -0.3534    0.0690    3.8949 O   0  0
    5.4119   -0.7391   -0.8181 I   0  0
    1.9099   -1.0152   -1.1987 H   0  0
    3.6807   -2.1128    2.5721 H   0  0
    0.0057   -0.0030   -0.0127 H   0  0
    1.7787   -1.1019    3.7625 H   0  0
    3.7205   -2.8551   -0.9573 H   0  0
    4.6132   -2.9424    0.5470 H   0  0
  1  3  2  0
  1  5  1  0
  2  4  1  0
  2  5  2  0
  3  6  1  0
  4  6  2  0
  5  7  1  0
  6  8  1  0
  7 11  1  0
  8  9  1  0
  8 10  2  0
  1 12  1  0
  2 13  1  0
  3 14  1  0
  4 15  1  0
  7 16  1  0
  7 17  1  0
M  CHG  2   8   1   9  -1
M  END
> <Name>
BR010469

$$$$
BR010470
  SciTegic05062102053D

 20 20  0  0  0  0            999 V2000
    1.8851   -1.0363   -0.1124 C   0  0
    2.8783   -1.6520    2.0022 C   0  0
    0.8066   -0.4630    0.5610 C   0  0
    1.7997   -1.0786    2.6757 C   0  0
    2.9210   -1.6309    0.6081 C   0  0
    0.7638   -0.4841    1.9551 C   0  0
    4.0456   -2.2281   -0.0940 C   0  0
   -0.3596    0.1152    2.6571 C   0  0
   -1.2746    0.5491    4.8177 C   0  0
    4.9921   -2.7683    0.4855 O   0  0
   -1.3203    0.6647    2.1016 O   0  0
   -0.2267   -0.0035    4.0138 O   0  0
    1.9086   -1.0137   -1.1991 H   0  0
    3.6803   -2.1117    2.5741 H   0  0
    0.0052   -0.0017   -0.0106 H   0  0
    1.7770   -1.1004    3.7622 H   0  0
    4.0356   -2.1865   -1.2051 H   0  0
   -1.0475    0.3884    5.8744 H   0  0
   -2.2230    0.0705    4.5609 H   0  0
   -1.3451    1.6216    4.6215 H   0  0
  1  3  2  0
  1  5  1  0
  2  4  1  0
  2  5  2  0
  3  6  1  0
  4  6  2  0
  5  7  1  0
  6  8  1  0
  7 10  2  0
  8 11  2  0
  8 12  1  0
  9 12  1  0
  1 13  1  0
  2 14  1  0
  3 15  1  0
  4 16  1  0
  7 17  1  0
  9 18  1  0
  9 19  1  0
  9 20  1  0
M  END
> <Name>
BR010470

$$$$
BR010471
  SciTegic05062102053D

 22 22  0  0  0  0            999 V2000
    1.8851   -1.0363   -0.1124 C   0  0
    2.8783   -1.6520    2.0022 C   0  0
    0.8066   -0.4630    0.5610 C   0  0
    1.7997   -1.0786    2.6757 C   0  0
    2.9210   -1.6309    0.6081 C   0  0
    0.7638   -0.4841    1.9551 C   0  0
    4.0464   -2.2285   -0.0930 C   0  0
    6.1162   -3.3764    0.2070 C   0  0
   -0.3892    0.1300    2.6748 C   0  0
    4.1692   -2.2562   -1.3247 O   0  0
   -0.2689    1.5467    2.6372 O   0  0
    4.9583   -2.7582    0.7786 O   0  0
    1.9089   -1.0145   -1.1989 H   0  0
    3.6797   -2.1125    2.5740 H   0  0
    0.0041   -0.0017   -0.0084 H   0  0
    1.7748   -1.0992    3.7621 H   0  0
    6.7591   -3.7558    1.0050 H   0  0
    6.6598   -2.6456   -0.3970 H   0  0
    5.7988   -4.2070   -0.4280 H   0  0
   -1.3457   -0.1533    2.2146 H   0  0
   -0.4200   -0.1940    3.7240 H   0  0
   -1.0348    1.9046    3.1140 H   0  0
  1  3  2  0
  1  5  1  0
  2  4  1  0
  2  5  2  0
  3  6  1  0
  4  6  2  0
  5  7  1  0
  6  9  1  0
  7 10  2  0
  7 12  1  0
  8 12  1  0
  9 11  1  0
  1 13  1  0
  2 14  1  0
  3 15  1  0
  4 16  1  0
  8 17  1  0
  8 18  1  0
  8 19  1  0
  9 20  1  0
  9 21  1  0
 11 22  1  0
M  END
> <Name>
BR010471

$$$$
BR010472
  SciTegic05062102053D

 21 21  0  0  0  0            999 V2000
    1.8851   -1.0363   -0.1124 C   0  0
    2.8783   -1.6520    2.0022 C   0  0
    0.8066   -0.4630    0.5610 C   0  0
    1.7997   -1.0786    2.6757 C   0  0
    2.9210   -1.6309    0.6081 C   0  0
    0.7638   -0.4841    1.9551 C   0  0
    4.0464   -2.2285   -0.0930 C   0  0
    6.1162   -3.3764    0.2070 C   0  0
   -0.3892    0.1300    2.6748 C   0  0
    4.1692   -2.2562   -1.3247 O   0  0
    4.9583   -2.7582    0.7786 O   0  0
    0.1509    2.0264    3.4897 I   0  0
    1.9089   -1.0145   -1.1989 H   0  0
    3.6797   -2.1125    2.5740 H   0  0
    0.0041   -0.0017   -0.0084 H   0  0
    1.7748   -1.0992    3.7621 H   0  0
    6.7591   -3.7558    1.0050 H   0  0
    6.6598   -2.6456   -0.3970 H   0  0
    5.7988   -4.2070   -0.4280 H   0  0
   -0.7406   -0.5354    3.4790 H   0  0
   -1.2490    0.2468    1.9967 H   0  0
  1  3  2  0
  1  5  1  0
  2  4  1  0
  2  5  2  0
  3  6  1  0
  4  6  2  0
  5  7  1  0
  6  9  1  0
  7 10  2  0
  7 11  1  0
  8 11  1  0
  9 12  1  0
  1 13  1  0
  2 14  1  0
  3 15  1  0
  4 16  1  0
  8 17  1  0
  8 18  1  0
  8 19  1  0
  9 20  1  0
  9 21  1  0
M  END
> <Name>
BR010472

$$$$
BR010473
  SciTegic05062102053D

 54 57  0  0  0  0            999 V2000
    0.3473   -4.9113    4.4541 C   0  0
   -4.2515   -1.7312   -0.6014 C   0  0
   -4.1375    0.7894    6.5007 C   0  0
   -0.8867   -4.9624    3.8058 C   0  0
    0.9591   -3.6808    4.6934 C   0  0
   -2.8810   -1.9875   -0.6427 C   0  0
   -4.8391   -1.2669    0.5754 C   0  0
   -3.4374   -0.3983    6.7122 C   0  0
   -4.0897    1.4148    5.2548 C   0  0
   -1.3525    3.7868    2.6395 C   0  0
   -1.9079    2.8221    0.4952 C   0  0
   -0.8700    2.5511    3.0705 C   0  0
   -1.4253    1.5864    0.9262 C   0  0
   -1.5089   -3.7829    3.3967 C   0  0
    0.3369   -2.5013    4.2843 C   0  0
   -2.0981   -1.7797    0.4929 C   0  0
   -4.0562   -1.0591    1.7110 C   0  0
   -2.6893   -0.9606    5.6779 C   0  0
   -3.3416    0.8526    4.2205 C   0  0
   -1.8716    3.9224    1.3518 C   0  0
   -0.9064    1.4509    2.2138 C   0  0
   -0.8971   -2.5523    3.6359 C   0  0
   -2.6857   -1.3155    1.6698 C   0  0
   -2.6414   -0.3352    4.4320 C   0  0
   -2.3745    5.2105    0.9012 C   0  0
   -3.9580    6.2666   -0.5372 C   0  0
   -0.3892    0.1300    2.6748 C   0  0
   -1.9490    6.3047    1.2943 O   0  0
   -3.3796    5.0653   -0.0156 O   0  0
   -1.6892   -1.0509    3.1153 P   0  3
    0.8317   -5.8298    4.7725 H   0  0
   -4.8610   -1.8931   -1.4857 H   0  0
   -4.7199    1.2271    7.3062 H   0  0
   -1.3628   -5.9204    3.6191 H   0  0
    1.9197   -3.6412    5.1985 H   0  0
   -2.4236   -2.3493   -1.5588 H   0  0
   -5.9062   -1.0671    0.6073 H   0  0
   -3.4744   -0.8851    7.6823 H   0  0
   -4.6351    2.3394    5.0901 H   0  0
   -1.3196    4.6379    3.3147 H   0  0
   -2.3102    2.9160   -0.5102 H   0  0
   -0.4671    2.4547    4.0751 H   0  0
   -1.4571    0.7345    0.2519 H   0  0
   -2.4696   -3.8277    2.8917 H   0  0
    0.8170   -1.5454    4.4733 H   0  0
   -1.0314   -1.9812    0.4562 H   0  0
   -4.5182   -0.6971    2.6250 H   0  0
   -2.1453   -1.8854    5.8475 H   0  0
   -3.3077    1.3430    3.2518 H   0  0
   -4.7429    6.0127   -1.2539 H   0  0
   -3.1831    6.8630   -1.0254 H   0  0
   -4.3911    6.8393    0.2863 H   0  0
    0.2389   -0.3297    1.8982 H   0  0
    0.2646    0.2586    3.5494 H   0  0
  1  4  2  0
  1  5  1  0
  2  6  2  0
  2  7  1  0
  3  8  2  0
  3  9  1  0
  4 14  1  0
  5 15  2  0
  6 16  1  0
  7 17  2  0
  8 18  1  0
  9 19  2  0
 10 12  2  0
 10 20  1  0
 11 13  1  0
 11 20  2  0
 12 21  1  0
 13 21  2  0
 14 22  2  0
 15 22  1  0
 16 23  2  0
 17 23  1  0
 18 24  2  0
 19 24  1  0
 20 25  1  0
 21 27  1  0
 22 30  1  0
 23 30  1  0
 24 30  1  0
 25 28  2  0
 25 29  1  0
 26 29  1  0
 27 30  1  0
  1 31  1  0
  2 32  1  0
  3 33  1  0
  4 34  1  0
  5 35  1  0
  6 36  1  0
  7 37  1  0
  8 38  1  0
  9 39  1  0
 10 40  1  0
 11 41  1  0
 12 42  1  0
 13 43  1  0
 14 44  1  0
 15 45  1  0
 16 46  1  0
 17 47  1  0
 18 48  1  0
 19 49  1  0
 26 50  1  0
 26 51  1  0
 26 52  1  0
 27 53  1  0
 27 54  1  0
M  CHG  1  30   1
M  END
> <Name>
BR010473

$$$$
BR010474
  SciTegic05062102053D

 53 54  0  0  1  0            999 V2000
    2.2509    0.5296   -1.1865 C   0  0
    2.7039    2.8830   -0.8808 C   0  0
    3.2173    0.4740   -2.1908 C   0  0
    3.6703    2.8274   -1.8851 C   0  0
    1.9941    1.7341   -0.5315 C   0  0
    3.9270    1.6229   -2.5401 C   0  0
    0.9738    1.7930    0.5285 C   0  0
   -0.0170    0.9044    0.7000 C   0  0
    4.9358    1.5642   -3.5860 C   0  0
   -0.2459   -0.5115    3.6334 C   0  0
   -2.4195    1.0706    1.1615 C   0  0
   -1.0530    1.0110    1.8030 C   0  0  1  0  0  0
   -2.2589   -1.0072    2.1876 C   0  0
   -1.8398   -2.3826    1.6717 C   0  0
   -3.3201   -1.1270    3.2830 C   0  0
    2.4059   -1.0962    4.5315 C   0  0
    2.6424    1.3824    4.8631 C   0  0
    0.9255    0.1032    6.1762 C   0  0
    6.5347    2.8550   -4.7982 C   0  0
    1.6695    0.2054    4.8454 C   0  0
   -1.1230   -0.1908    2.6060 N   0  0
    5.2303    0.5411   -4.2181 O   0  0
   -0.3092   -1.5333    4.3127 O   0  0
   -2.8483   -0.2990    1.0718 O   0  0
    5.5221    2.7837   -3.7886 O   0  0
    0.7145    0.4506    3.8068 O   0  0
    1.7057   -0.3742   -0.9251 H   0  0
    2.5151    3.8291   -0.3793 H   0  0
    3.4094   -0.4700   -2.6943 H   0  0
    4.2179    3.7285   -2.1492 H   0  0
    1.0416    2.6455    1.2009 H   0  0
   -0.1262    0.0555    0.0310 H   0  0
   -3.1336    1.5974    1.8051 H   0  0
   -2.4444    1.5329    0.1701 H   0  0
   -0.8450    1.9003    2.3936 H   0  0
   -1.0855   -2.2711    0.8946 H   0  0
   -2.7037   -2.9006    1.2586 H   0  0
   -1.4266   -2.9726    2.4881 H   0  0
   -3.5999   -0.1353    3.6317 H   0  0
   -2.9225   -1.7017    4.1166 H   0  0
   -4.1997   -1.6299    2.8872 H   0  0
    1.7110   -1.9435    4.5179 H   0  0
    2.9148   -1.0483    3.5633 H   0  0
    3.1510   -1.3199    5.3035 H   0  0
    2.1183    2.3184    5.0880 H   0  0
    3.1087    1.5181    3.8806 H   0  0
    3.4340    1.2412    5.6061 H   0  0
    0.3973    1.0366    6.4016 H   0  0
    0.1964   -0.7135    6.1689 H   0  0
    1.6261   -0.0629    7.0025 H   0  0
    6.9187    3.8763   -4.8586 H   0  0
    6.1125    2.5555   -5.7607 H   0  0
    7.3494    2.1770   -4.5331 H   0  0
  1  3  2  0
  1  5  1  0
  2  4  1  0
  2  5  2  0
  3  6  1  0
  4  6  2  0
  5  7  1  0
  6  9  1  0
  7  8  2  0
  8 12  1  0
  9 22  2  0
  9 25  1  0
 10 21  1  0
 10 23  2  0
 10 26  1  0
 11 12  1  0
 11 24  1  0
 12 21  1  0
 13 14  1  0
 13 15  1  0
 13 21  1  0
 13 24  1  0
 16 20  1  0
 17 20  1  0
 18 20  1  0
 19 25  1  0
 20 26  1  0
  1 27  1  0
  2 28  1  0
  3 29  1  0
  4 30  1  0
  7 31  1  0
  8 32  1  0
 11 33  1  0
 11 34  1  0
 12 35  1  0
 14 36  1  0
 14 37  1  0
 14 38  1  0
 15 39  1  0
 15 40  1  0
 15 41  1  0
 16 42  1  0
 16 43  1  0
 16 44  1  0
 17 45  1  0
 17 46  1  0
 17 47  1  0
 18 48  1  0
 18 49  1  0
 18 50  1  0
 19 51  1  0
 19 52  1  0
 19 53  1  0
M  END
> <Name>
BR010474

$$$$
BR010475
  SciTegic05062102053D

 53 54  0  0  1  0            999 V2000
   -0.1510    4.2665   -0.4545 C   0  0
    0.5632    3.8097    1.8079 C   0  0
   -0.3912    5.5966   -0.1101 C   0  0
    0.3230    5.1399    2.1523 C   0  0
    0.3262    3.3730    0.5046 C   0  0
   -0.1542    6.0333    1.1932 C   0  0
    0.5796    1.9686    0.1413 C   0  0
   -0.0170    0.9044    0.7000 C   0  0
   -0.4030    7.4207    1.5515 C   0  0
   -0.2459   -0.5115    3.6334 C   0  0
   -2.4195    1.0706    1.1615 C   0  0
   -1.0530    1.0110    1.8030 C   0  0  1  0  0  0
   -2.2589   -1.0072    2.1876 C   0  0
   -1.8398   -2.3826    1.6717 C   0  0
   -3.3201   -1.1270    3.2830 C   0  0
    2.4059   -1.0962    4.5315 C   0  0
    2.6424    1.3824    4.8631 C   0  0
    0.9255    0.1032    6.1762 C   0  0
   -0.3215    8.9947    3.3426 C   0  0
    1.6695    0.2054    4.8454 C   0  0
   -1.1230   -0.1908    2.6060 N   0  0
   -0.8240    8.2817    0.7675 O   0  0
   -0.3092   -1.5333    4.3127 O   0  0
   -2.8483   -0.2990    1.0718 O   0  0
   -0.1151    7.6600    2.8675 O   0  0
    0.7145    0.4506    3.8068 O   0  0
   -0.3404    3.9406   -1.4744 H   0  0
    0.9352    3.1252    2.5665 H   0  0
   -0.7626    6.2843   -0.8656 H   0  0
    0.5114    5.4698    3.1707 H   0  0
    1.3282    1.8097   -0.6318 H   0  0
    0.2167   -0.1034    0.3685 H   0  0
   -3.1336    1.5974    1.8051 H   0  0
   -2.4444    1.5329    0.1701 H   0  0
   -0.8450    1.9003    2.3936 H   0  0
   -1.0855   -2.2711    0.8946 H   0  0
   -2.7037   -2.9006    1.2586 H   0  0
   -1.4266   -2.9726    2.4881 H   0  0
   -3.5999   -0.1353    3.6317 H   0  0
   -2.9225   -1.7017    4.1166 H   0  0
   -4.1997   -1.6299    2.8872 H   0  0
    1.7110   -1.9435    4.5179 H   0  0
    2.9148   -1.0483    3.5633 H   0  0
    3.1510   -1.3199    5.3035 H   0  0
    2.1183    2.3184    5.0880 H   0  0
    3.1087    1.5181    3.8806 H   0  0
    3.4340    1.2412    5.6061 H   0  0
    0.3973    1.0366    6.4016 H   0  0
    0.1964   -0.7135    6.1689 H   0  0
    1.6261   -0.0629    7.0025 H   0  0
   -0.0559    9.0505    4.4011 H   0  0
   -1.3689    9.2740    3.2035 H   0  0
    0.3143    9.6769    2.7733 H   0  0
  1  3  2  0
  1  5  1  0
  2  4  1  0
  2  5  2  0
  3  6  1  0
  4  6  2  0
  5  7  1  0
  6  9  1  0
  7  8  2  0
  8 12  1  0
  9 22  2  0
  9 25  1  0
 10 21  1  0
 10 23  2  0
 10 26  1  0
 11 12  1  0
 11 24  1  0
 12 21  1  0
 13 14  1  0
 13 15  1  0
 13 21  1  0
 13 24  1  0
 16 20  1  0
 17 20  1  0
 18 20  1  0
 19 25  1  0
 20 26  1  0
  1 27  1  0
  2 28  1  0
  3 29  1  0
  4 30  1  0
  7 31  1  0
  8 32  1  0
 11 33  1  0
 11 34  1  0
 12 35  1  0
 14 36  1  0
 14 37  1  0
 14 38  1  0
 15 39  1  0
 15 40  1  0
 15 41  1  0
 16 42  1  0
 16 43  1  0
 16 44  1  0
 17 45  1  0
 17 46  1  0
 17 47  1  0
 18 48  1  0
 18 49  1  0
 18 50  1  0
 19 51  1  0
 19 52  1  0
 19 53  1  0
M  END
> <Name>
BR010475

$$$$
BR010476
  SciTegic05062102053D

 35 35  0  0  1  0            999 V2000
   -0.0170    0.9044    0.7000 C   0  0
   -0.2459   -0.5115    3.6334 C   0  0
   -2.4195    1.0706    1.1615 C   0  0
   -1.0530    1.0110    1.8030 C   0  0  1  0  0  0
   -2.2589   -1.0072    2.1876 C   0  0
   -1.8398   -2.3826    1.6717 C   0  0
   -3.3201   -1.1270    3.2830 C   0  0
    2.4059   -1.0962    4.5315 C   0  0
    2.6424    1.3824    4.8631 C   0  0
    0.9255    0.1032    6.1762 C   0  0
    1.6695    0.2054    4.8454 C   0  0
   -1.1230   -0.1908    2.6060 N   0  0
   -0.1567   -0.0801   -0.0775 O   0  5
    0.8550    1.8181    0.7023 O   0  0
   -0.3092   -1.5333    4.3127 O   0  0
   -2.8483   -0.2990    1.0718 O   0  0
    0.7145    0.4506    3.8068 O   0  0
   -3.1343    1.6027    1.7993 H   0  0
   -2.4365    1.5228    0.1654 H   0  0
   -0.8324    1.8949    2.4089 H   0  0
   -1.0856   -2.2711    0.8946 H   0  0
   -2.7037   -2.9005    1.2586 H   0  0
   -1.4267   -2.9726    2.4881 H   0  0
   -3.6002   -0.1354    3.6320 H   0  0
   -2.9228   -1.7017    4.1169 H   0  0
   -4.2000   -1.6299    2.8874 H   0  0
    1.7110   -1.9435    4.5179 H   0  0
    2.9148   -1.0483    3.5633 H   0  0
    3.1510   -1.3199    5.3035 H   0  0
    2.1183    2.3184    5.0880 H   0  0
    3.1087    1.5181    3.8806 H   0  0
    3.4340    1.2412    5.6061 H   0  0
    0.3973    1.0366    6.4016 H   0  0
    0.1964   -0.7135    6.1689 H   0  0
    1.6261   -0.0629    7.0025 H   0  0
  1  4  1  0
  1 13  1  0
  1 14  2  0
  2 12  1  0
  2 15  2  0
  2 17  1  0
  3  4  1  0
  3 16  1  0
  4 12  1  0
  5  6  1  0
  5  7  1  0
  5 12  1  0
  5 16  1  0
  8 11  1  0
  9 11  1  0
 10 11  1  0
 11 17  1  0
  3 18  1  0
  3 19  1  0
  4 20  1  0
  6 21  1  0
  6 22  1  0
  6 23  1  0
  7 24  1  0
  7 25  1  0
  7 26  1  0
  8 27  1  0
  8 28  1  0
  8 29  1  0
  9 30  1  0
  9 31  1  0
  9 32  1  0
 10 33  1  0
 10 34  1  0
 10 35  1  0
M  CHG  1  13  -1
M  END
> <Name>
BR010476

$$$$
BR010477
  SciTegic05062102053D

 53 55  0  0  1  0            999 V2000
   -3.5620    0.0372    7.0030 C   0  0
   -2.3457   -0.0576    6.3334 C   0  0
   -5.8066    0.9858    2.7918 C   0  0
   -4.7296    0.3202    6.2938 C   0  0
   -2.2923    0.1302    4.9519 C   0  0
   -5.8600    0.7979    4.1732 C   0  0
   -4.5903    0.8910    2.1222 C   0  0
   -4.6946    0.5123    4.9031 C   0  0
   -3.4577    0.4159    4.2221 C   0  0
   -3.4226    0.6080    2.8313 C   0  0
    0.5585    1.1750    0.3874 C   0  0
   -0.6157   -2.2720    0.3126 C   0  0
   -0.7213   -0.9175    0.9861 C   0  0  2  0  0  0
    0.1378   -0.7189   -1.2321 C   0  0
    1.5899   -1.0343   -1.5983 C   0  0
   -0.5536    0.0641   -2.3466 C   0  0
    0.2091    3.8850    1.2333 C   0  0
    0.4335    2.9906    3.5698 C   0  0
    2.3472    2.7723    1.9579 C   0  0
   -2.1730   -0.4586    1.1118 C   0  0
    0.8267    2.7943    2.1072 C   0  0
    0.0232   -0.0670    0.0714 N   0  0
    1.1861    1.8843   -0.3953 O   0  0
   -0.5687   -1.9754   -1.0924 O   0  0
   -2.2464    0.5244    2.1273 O   0  0
    0.3090    1.5267    1.6878 O   0  0
   -3.6028   -0.1092    8.0784 H   0  0
   -1.4371   -0.2780    6.8863 H   0  0
   -6.7153    1.2061    2.2392 H   0  0
   -5.6693    0.3897    6.8380 H   0  0
   -1.3257    0.0492    4.4596 H   0  0
   -6.8217    0.8766    4.6759 H   0  0
   -4.5574    1.0388    1.0460 H   0  0
    0.3183   -2.7789    0.5811 H   0  0
   -1.4514   -2.9443    0.5259 H   0  0
   -0.2573   -0.9241    1.9779 H   0  0
    2.0585   -1.5911   -0.7899 H   0  0
    2.1361   -0.1077   -1.7598 H   0  0
    1.6168   -1.6304   -2.5077 H   0  0
   -1.5833    0.2765   -2.0641 H   0  0
   -0.5489   -0.5199   -3.2654 H   0  0
   -0.0295    1.0029   -2.5177 H   0  0
    0.4889    3.7476    0.1827 H   0  0
   -0.8835    3.8885    1.3046 H   0  0
    0.5780    4.8751    1.5246 H   0  0
    0.8744    2.2102    4.2005 H   0  0
   -0.6524    2.9124    3.6959 H   0  0
    0.7571    3.9658    3.9477 H   0  0
    2.7904    1.9900    2.5846 H   0  0
    2.6480    2.5955    0.9201 H   0  0
    2.7851    3.7203    2.2907 H   0  0
   -2.8062   -1.3035    1.3798 H   0  0
   -2.5087   -0.0298    0.1684 H   0  0
  1  2  1  0
  1  4  2  0
  2  5  2  0
  3  6  1  0
  3  7  2  0
  4  8  1  0
  5  9  1  0
  6  8  2  0
  7 10  1  0
  8  9  1  0
  9 10  2  0
 10 25  1  0
 11 22  1  0
 11 23  2  0
 11 26  1  0
 12 13  1  0
 12 24  1  0
 13 20  1  0
 13 22  1  0
 14 15  1  0
 14 16  1  0
 14 22  1  0
 14 24  1  0
 17 21  1  0
 18 21  1  0
 19 21  1  0
 20 25  1  0
 21 26  1  0
  1 27  1  0
  2 28  1  0
  3 29  1  0
  4 30  1  0
  5 31  1  0
  6 32  1  0
  7 33  1  0
 12 34  1  0
 12 35  1  0
 13 36  1  0
 15 37  1  0
 15 38  1  0
 15 39  1  0
 16 40  1  0
 16 41  1  0
 16 42  1  0
 17 43  1  0
 17 44  1  0
 17 45  1  0
 18 46  1  0
 18 47  1  0
 18 48  1  0
 19 49  1  0
 19 50  1  0
 19 51  1  0
 20 52  1  0
 20 53  1  0
M  END
> <Name>
BR010477

$$$$
BR010478
  SciTegic05062102053D

 53 55  0  0  1  0            999 V2000
   -7.0110    1.2958    6.3327 C   0  0
   -5.8086    1.6372    6.9447 C   0  0
   -7.0222    0.8690    5.0045 C   0  0
   -4.6128    1.5530    6.2309 C   0  0
   -5.8207    0.3506    2.9331 C   0  0
   -4.6250    0.2665    2.2193 C   0  0
   -3.4113    1.0348    4.1595 C   0  0
   -5.8281    0.7783    4.2708 C   0  0
   -4.6054    1.1255    4.8932 C   0  0
   -3.4226    0.6080    2.8313 C   0  0
    0.5585    1.1750    0.3874 C   0  0
   -0.6157   -2.2720    0.3126 C   0  0
   -0.7213   -0.9175    0.9861 C   0  0  2  0  0  0
    0.1378   -0.7189   -1.2321 C   0  0
    1.5899   -1.0343   -1.5983 C   0  0
   -0.5536    0.0641   -2.3466 C   0  0
    0.2091    3.8850    1.2333 C   0  0
    0.4335    2.9906    3.5698 C   0  0
    2.3472    2.7723    1.9579 C   0  0
   -2.1730   -0.4586    1.1118 C   0  0
    0.8267    2.7943    2.1072 C   0  0
    0.0232   -0.0670    0.0714 N   0  0
    1.1861    1.8843   -0.3953 O   0  0
   -0.5687   -1.9754   -1.0924 O   0  0
   -2.2464    0.5244    2.1273 O   0  0
    0.3090    1.5267    1.6878 O   0  0
   -7.9415    1.3622    6.8888 H   0  0
   -5.8002    1.9692    7.9789 H   0  0
   -7.9733    0.6074    4.5454 H   0  0
   -3.6849    1.8257    6.7295 H   0  0
   -6.7490    0.0794    2.4343 H   0  0
   -4.6397   -0.0660    1.1849 H   0  0
   -2.4623    1.2979    4.6235 H   0  0
    0.3183   -2.7789    0.5811 H   0  0
   -1.4514   -2.9443    0.5259 H   0  0
   -0.2573   -0.9241    1.9779 H   0  0
    2.0585   -1.5911   -0.7899 H   0  0
    2.1361   -0.1077   -1.7598 H   0  0
    1.6168   -1.6304   -2.5077 H   0  0
   -1.5833    0.2765   -2.0641 H   0  0
   -0.5489   -0.5199   -3.2654 H   0  0
   -0.0295    1.0029   -2.5177 H   0  0
    0.4889    3.7476    0.1827 H   0  0
   -0.8835    3.8885    1.3046 H   0  0
    0.5780    4.8751    1.5246 H   0  0
    0.8744    2.2102    4.2005 H   0  0
   -0.6524    2.9124    3.6959 H   0  0
    0.7571    3.9658    3.9477 H   0  0
    2.7904    1.9900    2.5846 H   0  0
    2.6480    2.5955    0.9201 H   0  0
    2.7851    3.7203    2.2907 H   0  0
   -2.8062   -1.3035    1.3798 H   0  0
   -2.5087   -0.0298    0.1684 H   0  0
  1  2  1  0
  1  3  2  0
  2  4  2  0
  3  8  1  0
  4  9  1  0
  5  6  1  0
  5  8  2  0
  6 10  2  0
  7  9  2  0
  7 10  1  0
  8  9  1  0
 10 25  1  0
 11 22  1  0
 11 23  2  0
 11 26  1  0
 12 13  1  0
 12 24  1  0
 13 20  1  0
 13 22  1  0
 14 15  1  0
 14 16  1  0
 14 22  1  0
 14 24  1  0
 17 21  1  0
 18 21  1  0
 19 21  1  0
 20 25  1  0
 21 26  1  0
  1 27  1  0
  2 28  1  0
  3 29  1  0
  4 30  1  0
  5 31  1  0
  6 32  1  0
  7 33  1  0
 12 34  1  0
 12 35  1  0
 13 36  1  0
 15 37  1  0
 15 38  1  0
 15 39  1  0
 16 40  1  0
 16 41  1  0
 16 42  1  0
 17 43  1  0
 17 44  1  0
 17 45  1  0
 18 46  1  0
 18 47  1  0
 18 48  1  0
 19 49  1  0
 19 50  1  0
 19 51  1  0
 20 52  1  0
 20 53  1  0
M  END
> <Name>
BR010478

$$$$
BR010479
  SciTegic05062102053D

 46 47  0  0  1  0            999 V2000
   -4.8652    2.5497    3.6255 C   0  0
   -3.6020    2.0243    3.3773 C   0  0
   -5.7324    1.1310    1.9250 C   0  0
   -5.9560    2.0999    2.8899 C   0  0
   -3.4838    1.0586    2.3907 C   0  0
    0.5585    1.1750    0.3874 C   0  0
   -0.6157   -2.2720    0.3126 C   0  0
   -0.7213   -0.9175    0.9861 C   0  0  2  0  0  0
    0.1378   -0.7189   -1.2321 C   0  0
    1.5899   -1.0343   -1.5983 C   0  0
   -0.5536    0.0641   -2.3466 C   0  0
    0.2091    3.8850    1.2333 C   0  0
    0.4335    2.9906    3.5698 C   0  0
    2.3472    2.7723    1.9579 C   0  0
   -2.1730   -0.4586    1.1118 C   0  0
    0.8267    2.7943    2.1072 C   0  0
   -4.5201    0.5968    1.6555 N   0  0
    0.0232   -0.0670    0.0714 N   0  0
    1.1861    1.8843   -0.3953 O   0  0
   -0.5687   -1.9754   -1.0924 O   0  0
   -2.2464    0.5244    2.1273 O   0  0
    0.3090    1.5267    1.6878 O   0  0
   -7.5284    2.7254    3.1679 Cl  0  0
   -4.9859    3.3082    4.3945 H   0  0
   -2.7413    2.3648    3.9424 H   0  0
   -6.5429    0.7393    1.3176 H   0  0
    0.3183   -2.7789    0.5811 H   0  0
   -1.4514   -2.9443    0.5259 H   0  0
   -0.2573   -0.9241    1.9779 H   0  0
    2.0585   -1.5911   -0.7899 H   0  0
    2.1361   -0.1077   -1.7598 H   0  0
    1.6168   -1.6304   -2.5077 H   0  0
   -1.5833    0.2765   -2.0641 H   0  0
   -0.5489   -0.5199   -3.2654 H   0  0
   -0.0295    1.0029   -2.5177 H   0  0
    0.4889    3.7476    0.1827 H   0  0
   -0.8835    3.8885    1.3046 H   0  0
    0.5780    4.8751    1.5246 H   0  0
    0.8744    2.2102    4.2005 H   0  0
   -0.6524    2.9124    3.6959 H   0  0
    0.7571    3.9658    3.9477 H   0  0
    2.7904    1.9900    2.5846 H   0  0
    2.6480    2.5955    0.9201 H   0  0
    2.7851    3.7203    2.2907 H   0  0
   -2.8062   -1.3035    1.3798 H   0  0
   -2.5087   -0.0298    0.1684 H   0  0
  1  2  1  0
  1  4  2  0
  2  5  2  0
  3  4  1  0
  3 17  2  0
  4 23  1  0
  5 17  1  0
  5 21  1  0
  6 18  1  0
  6 19  2  0
  6 22  1  0
  7  8  1  0
  7 20  1  0
  8 15  1  0
  8 18  1  0
  9 10  1  0
  9 11  1  0
  9 18  1  0
  9 20  1  0
 12 16  1  0
 13 16  1  0
 14 16  1  0
 15 21  1  0
 16 22  1  0
  1 24  1  0
  2 25  1  0
  3 26  1  0
  7 27  1  0
  7 28  1  0
  8 29  1  0
 10 30  1  0
 10 31  1  0
 10 32  1  0
 11 33  1  0
 11 34  1  0
 11 35  1  0
 12 36  1  0
 12 37  1  0
 12 38  1  0
 13 39  1  0
 13 40  1  0
 13 41  1  0
 14 42  1  0
 14 43  1  0
 14 44  1  0
 15 45  1  0
 15 46  1  0
M  END
> <Name>
BR010479

$$$$
BR010480
  SciTegic05062102053D

 48 49  0  0  1  0            999 V2000
   -4.8656    2.5504    3.6242 C   0  0
   -3.6024    2.0243    3.3772 C   0  0
   -5.7319    1.1322    1.9229 C   0  0
   -5.9559    2.1012    2.8876 C   0  0
   -3.4838    1.0586    2.3907 C   0  0
    0.5585    1.1750    0.3874 C   0  0
   -0.6157   -2.2720    0.3126 C   0  0
   -0.7213   -0.9175    0.9861 C   0  0  2  0  0  0
    0.1378   -0.7189   -1.2321 C   0  0
    1.5899   -1.0343   -1.5983 C   0  0
   -0.5536    0.0641   -2.3466 C   0  0
    0.2091    3.8850    1.2333 C   0  0
    0.4335    2.9906    3.5698 C   0  0
    2.3472    2.7723    1.9579 C   0  0
   -2.1730   -0.4586    1.1118 C   0  0
    0.8267    2.7943    2.1072 C   0  0
   -4.5196    0.5974    1.6545 N   0  0
    0.0232   -0.0670    0.0714 N   0  0
   -7.2555    2.6183    3.1163 N   0  3
   -7.4167    3.4961    4.0002 O   0  5
    1.1861    1.8843   -0.3953 O   0  0
   -8.2141    2.1864    2.4292 O   0  0
   -0.5687   -1.9754   -1.0924 O   0  0
   -2.2464    0.5244    2.1273 O   0  0
    0.3090    1.5267    1.6878 O   0  0
   -4.9866    3.3099    4.3926 H   0  0
   -2.7416    2.3649    3.9423 H   0  0
   -6.5423    0.7405    1.3145 H   0  0
    0.3183   -2.7789    0.5811 H   0  0
   -1.4514   -2.9443    0.5259 H   0  0
   -0.2573   -0.9241    1.9779 H   0  0
    2.0585   -1.5911   -0.7899 H   0  0
    2.1361   -0.1077   -1.7598 H   0  0
    1.6168   -1.6304   -2.5077 H   0  0
   -1.5833    0.2765   -2.0641 H   0  0
   -0.5489   -0.5199   -3.2654 H   0  0
   -0.0295    1.0029   -2.5177 H   0  0
    0.4889    3.7476    0.1827 H   0  0
   -0.8835    3.8885    1.3046 H   0  0
    0.5780    4.8751    1.5246 H   0  0
    0.8744    2.2102    4.2005 H   0  0
   -0.6524    2.9124    3.6959 H   0  0
    0.7571    3.9658    3.9477 H   0  0
    2.7904    1.9900    2.5846 H   0  0
    2.6480    2.5955    0.9201 H   0  0
    2.7851    3.7203    2.2907 H   0  0
   -2.8062   -1.3035    1.3798 H   0  0
   -2.5087   -0.0298    0.1684 H   0  0
  1  2  1  0
  1  4  2  0
  2  5  2  0
  3  4  1  0
  3 17  2  0
  4 19  1  0
  5 17  1  0
  5 24  1  0
  6 18  1  0
  6 21  2  0
  6 25  1  0
  7  8  1  0
  7 23  1  0
  8 15  1  0
  8 18  1  0
  9 10  1  0
  9 11  1  0
  9 18  1  0
  9 23  1  0
 12 16  1  0
 13 16  1  0
 14 16  1  0
 15 24  1  0
 16 25  1  0
 19 20  1  0
 19 22  2  0
  1 26  1  0
  2 27  1  0
  3 28  1  0
  7 29  1  0
  7 30  1  0
  8 31  1  0
 10 32  1  0
 10 33  1  0
 10 34  1  0
 11 35  1  0
 11 36  1  0
 11 37  1  0
 12 38  1  0
 12 39  1  0
 12 40  1  0
 13 41  1  0
 13 42  1  0
 13 43  1  0
 14 44  1  0
 14 45  1  0
 14 46  1  0
 15 47  1  0
 15 48  1  0
M  CHG  2  19   1  20  -1
M  END
> <Name>
BR010480

$$$$
BR010481
  SciTegic05062102053D

 46 47  0  0  1  0            999 V2000
   -4.9158    2.5524    3.6165 C   0  0
   -3.6508    2.0300    3.3715 C   0  0
   -5.9729    2.0737    2.8594 C   0  0
   -4.6051    0.6467    1.6886 C   0  0
   -3.4838    1.0586    2.3907 C   0  0
    0.5585    1.1750    0.3874 C   0  0
   -0.6157   -2.2720    0.3126 C   0  0
   -0.7213   -0.9175    0.9861 C   0  0  2  0  0  0
    0.1378   -0.7189   -1.2321 C   0  0
    1.5899   -1.0343   -1.5983 C   0  0
   -0.5536    0.0641   -2.3466 C   0  0
    0.2091    3.8850    1.2333 C   0  0
    0.4335    2.9906    3.5698 C   0  0
    2.3472    2.7723    1.9579 C   0  0
   -2.1730   -0.4586    1.1118 C   0  0
    0.8267    2.7943    2.1072 C   0  0
   -5.8497    1.1310    1.8983 N   0  0
    0.0232   -0.0670    0.0714 N   0  0
    1.1861    1.8843   -0.3953 O   0  0
   -0.5687   -1.9754   -1.0924 O   0  0
   -2.2464    0.5244    2.1273 O   0  0
    0.3090    1.5267    1.6878 O   0  0
   -5.0690    3.3106    4.3759 H   0  0
   -2.7996    2.3834    3.9466 H   0  0
   -6.9793    2.4498    3.0126 H   0  0
   -4.5331   -0.1081    0.9119 H   0  0
    0.3183   -2.7789    0.5811 H   0  0
   -1.4514   -2.9443    0.5259 H   0  0
   -0.2573   -0.9241    1.9779 H   0  0
    2.0585   -1.5911   -0.7899 H   0  0
    2.1361   -0.1077   -1.7598 H   0  0
    1.6168   -1.6304   -2.5077 H   0  0
   -1.5833    0.2765   -2.0641 H   0  0
   -0.5489   -0.5199   -3.2654 H   0  0
   -0.0295    1.0029   -2.5177 H   0  0
    0.4889    3.7476    0.1827 H   0  0
   -0.8835    3.8885    1.3046 H   0  0
    0.5780    4.8751    1.5246 H   0  0
    0.8744    2.2102    4.2005 H   0  0
   -0.6524    2.9124    3.6959 H   0  0
    0.7571    3.9658    3.9477 H   0  0
    2.7904    1.9900    2.5846 H   0  0
    2.6480    2.5955    0.9201 H   0  0
    2.7851    3.7203    2.2907 H   0  0
   -2.8062   -1.3035    1.3798 H   0  0
   -2.5087   -0.0298    0.1684 H   0  0
  1  2  1  0
  1  3  2  0
  2  5  2  0
  3 17  1  0
  4  5  1  0
  4 17  2  0
  5 21  1  0
  6 18  1  0
  6 19  2  0
  6 22  1  0
  7  8  1  0
  7 20  1  0
  8 15  1  0
  8 18  1  0
  9 10  1  0
  9 11  1  0
  9 18  1  0
  9 20  1  0
 12 16  1  0
 13 16  1  0
 14 16  1  0
 15 21  1  0
 16 22  1  0
  1 23  1  0
  2 24  1  0
  3 25  1  0
  4 26  1  0
  7 27  1  0
  7 28  1  0
  8 29  1  0
 10 30  1  0
 10 31  1  0
 10 32  1  0
 11 33  1  0
 11 34  1  0
 11 35  1  0
 12 36  1  0
 12 37  1  0
 12 38  1  0
 13 39  1  0
 13 40  1  0
 13 41  1  0
 14 42  1  0
 14 43  1  0
 14 44  1  0
 15 45  1  0
 15 46  1  0
M  END
> <Name>
BR010481

$$$$
BR010482
  SciTegic05062102053D

 46 47  0  0  1  0            999 V2000
   -4.6259    0.2677    2.2233 C   0  0
   -3.4149    1.0332    4.1551 C   0  0
   -5.7845    0.3691    2.9763 C   0  0
   -4.6277    1.1006    4.8216 C   0  0
   -3.4226    0.6080    2.8313 C   0  0
    0.5585    1.1750    0.3874 C   0  0
   -0.6157   -2.2720    0.3126 C   0  0
   -0.7213   -0.9175    0.9861 C   0  0  2  0  0  0
    0.1378   -0.7189   -1.2321 C   0  0
    1.5899   -1.0343   -1.5983 C   0  0
   -0.5536    0.0641   -2.3466 C   0  0
    0.2091    3.8850    1.2333 C   0  0
    0.4335    2.9906    3.5698 C   0  0
    2.3472    2.7723    1.9579 C   0  0
   -2.1730   -0.4586    1.1118 C   0  0
    0.8267    2.7943    2.1072 C   0  0
   -5.8166    0.7782    4.2644 N   0  0
    0.0232   -0.0670    0.0714 N   0  0
    1.1861    1.8843   -0.3953 O   0  0
   -0.5687   -1.9754   -1.0924 O   0  0
   -2.2464    0.5244    2.1273 O   0  0
    0.3090    1.5267    1.6878 O   0  0
   -4.6622   -0.0678    1.1927 H   0  0
   -2.4916    1.3047    4.6550 H   0  0
   -6.7488    0.1146    2.5491 H   0  0
   -4.6761    1.4279    5.8550 H   0  0
    0.3183   -2.7789    0.5811 H   0  0
   -1.4514   -2.9443    0.5259 H   0  0
   -0.2573   -0.9241    1.9779 H   0  0
    2.0585   -1.5911   -0.7899 H   0  0
    2.1361   -0.1077   -1.7598 H   0  0
    1.6168   -1.6304   -2.5077 H   0  0
   -1.5833    0.2765   -2.0641 H   0  0
   -0.5489   -0.5199   -3.2654 H   0  0
   -0.0295    1.0029   -2.5177 H   0  0
    0.4889    3.7476    0.1827 H   0  0
   -0.8835    3.8885    1.3046 H   0  0
    0.5780    4.8751    1.5246 H   0  0
    0.8744    2.2102    4.2005 H   0  0
   -0.6524    2.9124    3.6959 H   0  0
    0.7571    3.9658    3.9477 H   0  0
    2.7904    1.9900    2.5846 H   0  0
    2.6480    2.5955    0.9201 H   0  0
    2.7851    3.7203    2.2907 H   0  0
   -2.8062   -1.3035    1.3798 H   0  0
   -2.5087   -0.0298    0.1684 H   0  0
  1  3  2  0
  1  5  1  0
  2  4  1  0
  2  5  2  0
  3 17  1  0
  4 17  2  0
  5 21  1  0
  6 18  1  0
  6 19  2  0
  6 22  1  0
  7  8  1  0
  7 20  1  0
  8 15  1  0
  8 18  1  0
  9 10  1  0
  9 11  1  0
  9 18  1  0
  9 20  1  0
 12 16  1  0
 13 16  1  0
 14 16  1  0
 15 21  1  0
 16 22  1  0
  1 23  1  0
  2 24  1  0
  3 25  1  0
  4 26  1  0
  7 27  1  0
  7 28  1  0
  8 29  1  0
 10 30  1  0
 10 31  1  0
 10 32  1  0
 11 33  1  0
 11 34  1  0
 11 35  1  0
 12 36  1  0
 12 37  1  0
 12 38  1  0
 13 39  1  0
 13 40  1  0
 13 41  1  0
 14 42  1  0
 14 43  1  0
 14 44  1  0
 15 45  1  0
 15 46  1  0
M  END
> <Name>
BR010482

$$$$
BR010483
  SciTegic05062102053D

 43 44  0  0  1  0            999 V2000
   -4.2332   -2.9285    3.8134 C   0  0
   -6.3579   -2.0199    3.1084 C   0  0
   -3.5696   -1.9305    3.0997 C   0  0
   -5.6944   -1.0219    2.3947 C   0  0
   -5.6274   -2.9732    3.8177 C   0  0
   -4.3002   -0.9772    2.3904 C   0  0
   -4.3680    0.4448   -1.2566 C   0  0
   -0.7884    0.2177   -0.7259 C   0  0
   -2.3365   -0.7893   -2.0877 C   0  0
   -2.1466    0.4950   -0.1056 C   0  0  2  0  0  0
   -6.4660    1.7652   -2.6788 C   0  0
   -6.8229   -0.4387   -3.8298 C   0  0
   -7.1428   -0.2591   -1.3451 C   0  0
   -2.3701   -0.3165    1.1681 C   0  0
   -6.3505    0.2470   -2.5496 C   0  0
   -3.0415    0.0662   -1.1597 N   0  0
   -6.3032   -3.9891    4.5439 N   0  3
   -5.6274   -4.8372    5.1752 O   0  5
   -4.9404    1.1745   -0.4505 O   0  0
   -7.5577   -4.0108    4.5347 O   0  0
   -1.0033   -0.9204   -1.5795 O   0  0
   -3.6468    0.0053    1.6879 O   0  0
   -4.9716   -0.0908   -2.3629 O   0  0
   -3.6518   -3.6652    4.3623 H   0  0
   -7.4449   -2.0432    3.1027 H   0  0
   -2.4834   -1.9007    3.1004 H   0  0
   -6.2689   -0.2822    1.8438 H   0  0
   -0.4645    1.0515   -1.3597 H   0  0
    0.0001   -0.0001   -0.0001 H   0  0
   -2.8155   -1.7707   -2.1473 H   0  0
   -2.3161   -0.3219   -3.0774 H   0  0
   -2.2903    1.5582    0.1141 H   0  0
   -6.1278    2.2611   -1.7620 H   0  0
   -5.8741    2.1448   -3.5181 H   0  0
   -7.5092    2.0668   -2.8267 H   0  0
   -6.7418   -1.5281   -3.7415 H   0  0
   -6.1959   -0.1505   -4.6812 H   0  0
   -7.8623   -0.1862   -4.0635 H   0  0
   -7.0601   -1.3480   -1.2522 H   0  0
   -6.7926    0.1949   -0.4124 H   0  0
   -8.2102   -0.0387   -1.4603 H   0  0
   -1.6070   -0.0677    1.9051 H   0  0
   -2.3305   -1.3815    0.9414 H   0  0
  1  3  1  0
  1  5  2  0
  2  4  2  0
  2  5  1  0
  3  6  2  0
  4  6  1  0
  5 17  1  0
  6 22  1  0
  7 16  1  0
  7 19  2  0
  7 23  1  0
  8 10  1  0
  8 21  1  0
  9 16  1  0
  9 21  1  0
 10 14  1  0
 10 16  1  0
 11 15  1  0
 12 15  1  0
 13 15  1  0
 14 22  1  0
 15 23  1  0
 17 18  1  0
 17 20  2  0
  1 24  1  0
  2 25  1  0
  3 26  1  0
  4 27  1  0
  8 28  1  0
  8 29  1  0
  9 30  1  0
  9 31  1  0
 10 32  1  0
 11 33  1  0
 11 34  1  0
 11 35  1  0
 12 36  1  0
 12 37  1  0
 12 38  1  0
 13 39  1  0
 13 40  1  0
 13 41  1  0
 14 42  1  0
 14 43  1  0
M  CHG  2  17   1  18  -1
M  END
> <Name>
BR010483

$$$$
BR010484
  SciTegic05062102053D

 53 55  0  0  1  0            999 V2000
    3.5146    4.1924   -4.1789 C   0  0
    4.7820    4.9621   -2.2714 C   0  0
    2.7930    3.3315   -3.3520 C   0  0
    4.0603    4.1013   -1.4445 C   0  0
    4.5092    5.0076   -3.6386 C   0  0
    3.0658    3.2860   -1.9848 C   0  0
    1.3247   -0.0953    0.8151 C   0  0
   -1.9081   -2.3158    0.4047 C   0  0
   -1.7577   -2.3431   -1.1067 C   0  0
   -1.7465   -0.8433    0.7769 C   0  0
   -0.6289   -1.3522   -1.3568 C   0  0
   -1.2807    2.0513   -0.5314 C   0  0
    0.2060    1.8809   -0.2889 C   0  0  2  0  0  0
   -0.9049   -0.2231   -0.3556 C   0  0
    4.0892   -0.7878    1.0553 C   0  0
    4.3729    1.4715    2.1156 C   0  0
    2.8989   -0.2453    3.2055 C   0  0
    1.0234    2.1473   -1.5514 C   0  0
    3.4126    0.3083    1.8772 C   0  0
    0.2845    0.4828    0.0992 N   0  0
    5.2442    5.8839   -4.4801 N   0  3
    4.9833    5.9096   -5.7072 O   0  5
    1.3757   -1.2806    1.1356 O   0  0
    6.1342    6.6089   -3.9736 O   0  0
   -1.7115    0.7743   -1.0279 O   0  0
    2.3551    2.4385   -1.1708 O   0  0
    2.2987    0.8140    1.1329 O   0  0
    3.2918    4.2183   -5.2427 H   0  0
    5.5548    5.5917   -1.8372 H   0  0
    2.0192    2.6991   -3.7786 H   0  0
    4.2777    4.0700   -0.3803 H   0  0
   -2.8683   -2.7225    0.7351 H   0  0
   -1.1119   -2.9078    0.8714 H   0  0
   -1.5236   -3.3424   -1.4844 H   0  0
   -2.6807   -2.0001   -1.5888 H   0  0
   -2.7339   -0.3695    0.8364 H   0  0
   -1.2820   -0.7527    1.7643 H   0  0
    0.3301   -1.8448   -1.1627 H   0  0
   -0.6277   -1.0083   -2.3963 H   0  0
   -1.8178    2.2461    0.4042 H   0  0
   -1.5296    2.8373   -1.2497 H   0  0
    0.5604    2.5331    0.5163 H   0  0
    3.4031   -1.6246    0.8820 H   0  0
    4.4311   -0.4119    0.0855 H   0  0
    4.9521   -1.2012    1.5899 H   0  0
    3.8915    2.2603    2.7050 H   0  0
    4.6702    1.9329    1.1670 H   0  0
    5.2766    1.1479    2.6420 H   0  0
    2.4135    0.5407    3.7953 H   0  0
    2.1800   -1.0569    3.0533 H   0  0
    3.7267   -0.6235    3.8163 H   0  0
    0.6069    2.9981   -2.0894 H   0  0
    1.0148    1.2656   -2.1911 H   0  0
  1  3  1  0
  1  5  2  0
  2  4  2  0
  2  5  1  0
  3  6  2  0
  4  6  1  0
  5 21  1  0
  6 26  1  0
  7 20  1  0
  7 23  2  0
  7 27  1  0
  8  9  1  0
  8 10  1  0
  9 11  1  0
 10 14  1  0
 11 14  1  0
 12 13  1  0
 12 25  1  0
 13 18  1  0
 13 20  1  0
 14 20  1  0
 14 25  1  0
 15 19  1  0
 16 19  1  0
 17 19  1  0
 18 26  1  0
 19 27  1  0
 21 22  1  0
 21 24  2  0
  1 28  1  0
  2 29  1  0
  3 30  1  0
  4 31  1  0
  8 32  1  0
  8 33  1  0
  9 34  1  0
  9 35  1  0
 10 36  1  0
 10 37  1  0
 11 38  1  0
 11 39  1  0
 12 40  1  0
 12 41  1  0
 13 42  1  0
 15 43  1  0
 15 44  1  0
 15 45  1  0
 16 46  1  0
 16 47  1  0
 16 48  1  0
 17 49  1  0
 17 50  1  0
 17 51  1  0
 18 52  1  0
 18 53  1  0
M  CHG  2  21   1  22  -1
M  END
> <Name>
BR010484

$$$$
BR010485
  SciTegic05062102053D

 47 48  0  0  1  0            999 V2000
   -2.1795    1.2727    5.6443 C   0  0
   -0.2636    2.7326    5.4572 C   0  0
   -2.2473    1.1835    4.2540 C   0  0
   -0.3314    2.6434    4.0669 C   0  0
   -1.1876    2.0473    6.2460 C   0  0
   -1.3233    1.8689    3.4653 C   0  0
    0.6999   -1.1895    0.7329 C   0  0
   -1.5544    1.5108   -0.7488 C   0  0
    1.1559    1.1519    0.1005 C   0  0
    0.4066    1.9449   -2.0122 C   0  0
   -1.2370    0.3419    0.1951 C   0  0  2  0  0  0
    0.9273   -3.3269    2.6228 C   0  0
   -1.1354   -4.2612    1.5358 C   0  0
    0.9724   -3.9939    0.1964 C   0  0
   -1.9038    0.5807    1.5523 C   0  0
    0.1215   -3.4190    1.3279 C   0  0
    0.2070    0.0766    0.3735 N   0  0
   -1.1184    2.1384    7.6613 N   0  3
   -1.9593    1.5142    8.3526 O   0  5
    1.8939   -1.4652    0.8369 O   0  0
   -0.2181    2.8404    8.1820 O   0  0
   -0.8935    1.3561   -2.0021 O   0  0
    1.4022    1.2156   -1.3001 O   0  0
   -1.3901    1.7809    2.0959 O   0  0
   -0.2987   -2.1009    0.9579 O   0  0
   -2.9056    0.7332    6.2474 H   0  0
    0.5143    3.3404    5.9130 H   0  0
   -3.0220    0.5783    3.7911 H   0  0
    0.3910    3.1799    3.4578 H   0  0
   -2.6308    1.5116   -0.9570 H   0  0
   -1.3274    2.4868   -0.3022 H   0  0
    0.8011    2.1040    0.5103 H   0  0
    2.1123    0.9272    0.5824 H   0  0
    0.7291    1.9677   -3.0577 H   0  0
    0.3729    2.9870   -1.6704 H   0  0
   -1.6705   -0.5630   -0.2487 H   0  0
    1.8303   -2.7232    2.4777 H   0  0
    0.3393   -2.8838    3.4332 H   0  0
    1.2666   -4.3184    2.9436 H   0  0
   -1.7166   -4.3299    0.6092 H   0  0
   -1.7949   -3.8008    2.2804 H   0  0
   -0.8917   -5.2754    1.8683 H   0  0
    0.3946   -4.0601   -0.7326 H   0  0
    1.8602   -3.3815    0.0082 H   0  0
    1.2965   -5.0140    0.4322 H   0  0
   -1.6793   -0.2473    2.2219 H   0  0
   -2.9802    0.6720    1.4213 H   0  0
  1  3  1  0
  1  5  2  0
  2  4  2  0
  2  5  1  0
  3  6  2  0
  4  6  1  0
  5 18  1  0
  6 24  1  0
  7 17  1  0
  7 20  2  0
  7 25  1  0
  8 11  1  0
  8 22  1  0
  9 17  1  0
  9 23  1  0
 10 22  1  0
 10 23  1  0
 11 15  1  0
 11 17  1  0
 12 16  1  0
 13 16  1  0
 14 16  1  0
 15 24  1  0
 16 25  1  0
 18 19  1  0
 18 21  2  0
  1 26  1  0
  2 27  1  0
  3 28  1  0
  4 29  1  0
  8 30  1  0
  8 31  1  0
  9 32  1  0
  9 33  1  0
 10 34  1  0
 10 35  1  0
 11 36  1  0
 12 37  1  0
 12 38  1  0
 12 39  1  0
 13 40  1  0
 13 41  1  0
 13 42  1  0
 14 43  1  0
 14 44  1  0
 14 45  1  0
 15 46  1  0
 15 47  1  0
M  CHG  2  18   1  19  -1
M  END
> <Name>
BR010485

$$$$
BR010486
  SciTegic05062102053D

 60 61  0  0  1  0            999 V2000
   -5.8227    0.3512    2.9340 C   0  0
   -4.6060    1.1205    4.8743 C   0  0
   -4.6282    0.2660    2.2188 C   0  0
   -3.4115    1.0352    4.1591 C   0  0
   -5.8116    0.7785    4.2618 C   0  0
   -3.4226    0.6080    2.8313 C   0  0
   -7.0569    0.8672    5.0077 C   0  0
    0.5585    1.1750    0.3874 C   0  0
   -0.6157   -2.2720    0.3126 C   0  0
   -0.7213   -0.9175    0.9861 C   0  0  2  0  0  0
    0.1378   -0.7189   -1.2321 C   0  0
    1.5899   -1.0343   -1.5983 C   0  0
   -0.5536    0.0641   -2.3466 C   0  0
   -7.2773    2.8025    8.5213 C   0  0
    0.2091    3.8850    1.2333 C   0  0
    0.4335    2.9906    3.5698 C   0  0
    2.3472    2.7723    1.9579 C   0  0
   -2.1730   -0.4586    1.1118 C   0  0
   -8.4359    2.1752    7.7593 C   0  0
   -8.1260    0.7646    7.2729 C   0  0
    0.8267    2.7943    2.1072 C   0  0
    0.0232   -0.0670    0.0714 N   0  0
   -6.9765    0.7241    6.3978 N   0  0
   -8.1365    1.0420    4.4154 O   0  0
    1.1861    1.8843   -0.3953 O   0  0
   -0.5687   -1.9754   -1.0924 O   0  0
   -2.2464    0.5244    2.1273 O   0  0
    0.3090    1.5267    1.6878 O   0  0
   -6.7560    0.0818    2.4463 H   0  0
   -4.5867    1.4544    5.9086 H   0  0
   -4.6434   -0.0674    1.1847 H   0  0
   -2.4755    1.3033    4.6415 H   0  0
    0.3183   -2.7789    0.5811 H   0  0
   -1.4514   -2.9443    0.5259 H   0  0
   -0.2573   -0.9241    1.9779 H   0  0
    2.0585   -1.5911   -0.7899 H   0  0
    2.1361   -0.1077   -1.7598 H   0  0
    1.6168   -1.6304   -2.5077 H   0  0
   -1.5833    0.2765   -2.0641 H   0  0
   -0.5489   -0.5199   -3.2654 H   0  0
   -0.0295    1.0029   -2.5177 H   0  0
   -7.0133    2.2020    9.3976 H   0  0
   -6.3943    2.8677    7.8774 H   0  0
   -7.5223    3.8146    8.8578 H   0  0
    0.4889    3.7476    0.1827 H   0  0
   -0.8835    3.8885    1.3046 H   0  0
    0.5780    4.8751    1.5246 H   0  0
    0.8744    2.2102    4.2005 H   0  0
   -0.6524    2.9124    3.6959 H   0  0
    0.7571    3.9658    3.9477 H   0  0
    2.7904    1.9900    2.5846 H   0  0
    2.6480    2.5955    0.9201 H   0  0
    2.7851    3.7203    2.2907 H   0  0
   -2.8062   -1.3035    1.3798 H   0  0
   -2.5087   -0.0298    0.1684 H   0  0
   -8.6674    2.8055    6.8928 H   0  0
   -9.3254    2.1654    8.4003 H   0  0
   -7.9021    0.1154    8.1253 H   0  0
   -8.9749    0.3354    6.7315 H   0  0
   -6.0786    0.5202    6.8244 H   0  0
  1  3  2  0
  1  5  1  0
  2  4  1  0
  2  5  2  0
  3  6  1  0
  4  6  2  0
  5  7  1  0
  6 27  1  0
  7 23  1  0
  7 24  2  0
  8 22  1  0
  8 25  2  0
  8 28  1  0
  9 10  1  0
  9 26  1  0
 10 18  1  0
 10 22  1  0
 11 12  1  0
 11 13  1  0
 11 22  1  0
 11 26  1  0
 14 19  1  0
 15 21  1  0
 16 21  1  0
 17 21  1  0
 18 27  1  0
 19 20  1  0
 20 23  1  0
 21 28  1  0
  1 29  1  0
  2 30  1  0
  3 31  1  0
  4 32  1  0
  9 33  1  0
  9 34  1  0
 10 35  1  0
 12 36  1  0
 12 37  1  0
 12 38  1  0
 13 39  1  0
 13 40  1  0
 13 41  1  0
 14 42  1  0
 14 43  1  0
 14 44  1  0
 15 45  1  0
 15 46  1  0
 15 47  1  0
 16 48  1  0
 16 49  1  0
 16 50  1  0
 17 51  1  0
 17 52  1  0
 17 53  1  0
 18 54  1  0
 18 55  1  0
 19 56  1  0
 19 57  1  0
 20 58  1  0
 20 59  1  0
 23 60  1  0
M  END
> <Name>
BR010486

$$$$
BR010487
  SciTegic05062102053D

 60 61  0  0  1  0            999 V2000
   -5.8227    0.3512    2.9340 C   0  0
   -4.6060    1.1205    4.8743 C   0  0
   -4.6282    0.2660    2.2188 C   0  0
   -3.4115    1.0352    4.1591 C   0  0
   -5.8116    0.7785    4.2618 C   0  0
   -3.4226    0.6080    2.8313 C   0  0
   -7.0569    0.8672    5.0077 C   0  0
    0.5585    1.1750    0.3874 C   0  0
   -0.6157   -2.2720    0.3126 C   0  0
   -0.7213   -0.9175    0.9861 C   0  0  2  0  0  0
    0.1378   -0.7189   -1.2321 C   0  0
    1.5899   -1.0343   -1.5983 C   0  0
   -0.5536    0.0641   -2.3466 C   0  0
   -7.7071    1.3361    8.6197 C   0  0
   -8.6914   -0.6416    7.4090 C   0  0
    0.2091    3.8850    1.2333 C   0  0
    0.4335    2.9906    3.5698 C   0  0
    2.3472    2.7723    1.9579 C   0  0
   -2.1730   -0.4586    1.1118 C   0  0
   -8.1260    0.7646    7.2729 C   0  0
    0.8267    2.7943    2.1072 C   0  0
    0.0232   -0.0670    0.0714 N   0  0
   -6.9765    0.7241    6.3978 N   0  0
   -8.1365    1.0420    4.4154 O   0  0
    1.1861    1.8843   -0.3953 O   0  0
   -0.5687   -1.9754   -1.0924 O   0  0
   -2.2464    0.5244    2.1273 O   0  0
    0.3090    1.5267    1.6878 O   0  0
   -6.7560    0.0818    2.4463 H   0  0
   -4.5867    1.4544    5.9086 H   0  0
   -4.6434   -0.0674    1.1847 H   0  0
   -2.4755    1.3033    4.6415 H   0  0
    0.3183   -2.7789    0.5811 H   0  0
   -1.4514   -2.9443    0.5259 H   0  0
   -0.2573   -0.9241    1.9779 H   0  0
    2.0585   -1.5911   -0.7899 H   0  0
    2.1361   -0.1077   -1.7598 H   0  0
    1.6168   -1.6304   -2.5077 H   0  0
   -1.5833    0.2765   -2.0641 H   0  0
   -0.5489   -0.5199   -3.2654 H   0  0
   -0.0295    1.0029   -2.5177 H   0  0
   -6.9553    0.6991    9.0969 H   0  0
   -7.2848    2.3417    8.5136 H   0  0
   -8.5668    1.4100    9.2948 H   0  0
   -7.9562   -1.3132    7.8658 H   0  0
   -8.9609   -1.0500    6.4295 H   0  0
   -9.5860   -0.6540    8.0417 H   0  0
    0.4889    3.7476    0.1827 H   0  0
   -0.8835    3.8885    1.3046 H   0  0
    0.5780    4.8751    1.5246 H   0  0
    0.8744    2.2102    4.2005 H   0  0
   -0.6524    2.9124    3.6959 H   0  0
    0.7571    3.9658    3.9477 H   0  0
    2.7904    1.9900    2.5846 H   0  0
    2.6480    2.5955    0.9201 H   0  0
    2.7851    3.7203    2.2907 H   0  0
   -2.8062   -1.3035    1.3798 H   0  0
   -2.5087   -0.0298    0.1684 H   0  0
   -8.8772    1.4171    6.8147 H   0  0
   -6.0786    0.5202    6.8244 H   0  0
  1  3  2  0
  1  5  1  0
  2  4  1  0
  2  5  2  0
  3  6  1  0
  4  6  2  0
  5  7  1  0
  6 27  1  0
  7 23  1  0
  7 24  2  0
  8 22  1  0
  8 25  2  0
  8 28  1  0
  9 10  1  0
  9 26  1  0
 10 19  1  0
 10 22  1  0
 11 12  1  0
 11 13  1  0
 11 22  1  0
 11 26  1  0
 14 20  1  0
 15 20  1  0
 16 21  1  0
 17 21  1  0
 18 21  1  0
 19 27  1  0
 20 23  1  0
 21 28  1  0
  1 29  1  0
  2 30  1  0
  3 31  1  0
  4 32  1  0
  9 33  1  0
  9 34  1  0
 10 35  1  0
 12 36  1  0
 12 37  1  0
 12 38  1  0
 13 39  1  0
 13 40  1  0
 13 41  1  0
 14 42  1  0
 14 43  1  0
 14 44  1  0
 15 45  1  0
 15 46  1  0
 15 47  1  0
 16 48  1  0
 16 49  1  0
 16 50  1  0
 17 51  1  0
 17 52  1  0
 17 53  1  0
 18 54  1  0
 18 55  1  0
 18 56  1  0
 19 57  1  0
 19 58  1  0
 20 59  1  0
 23 60  1  0
M  END
> <Name>
BR010487

$$$$
BR010488
  SciTegic05062102053D

 63 64  0  0  1  0            999 V2000
   -5.8227    0.3512    2.9340 C   0  0
   -4.6060    1.1205    4.8743 C   0  0
   -4.6282    0.2660    2.2188 C   0  0
   -3.4115    1.0352    4.1591 C   0  0
   -5.8116    0.7785    4.2618 C   0  0
   -3.4226    0.6080    2.8313 C   0  0
   -7.0569    0.8672    5.0077 C   0  0
    0.5585    1.1750    0.3874 C   0  0
   -0.6157   -2.2720    0.3126 C   0  0
   -0.7213   -0.9175    0.9861 C   0  0  2  0  0  0
    0.1378   -0.7189   -1.2321 C   0  0
    1.5899   -1.0343   -1.5983 C   0  0
   -0.5536    0.0641   -2.3466 C   0  0
   -8.4651    0.2002    7.9143 C   0  0
   -7.1980   -2.4112    4.6379 C   0  0
    0.2091    3.8850    1.2333 C   0  0
    0.4335    2.9906    3.5698 C   0  0
    2.3472    2.7723    1.9579 C   0  0
   -2.1730   -0.4586    1.1118 C   0  0
   -8.7265   -0.2395    6.5139 C   0  0
   -6.7565   -1.5143    5.7440 C   0  0
    0.8267    2.7943    2.1072 C   0  0
    0.0232   -0.0670    0.0714 N   0  0
   -7.4991   -0.2558    5.7306 N   0  0
   -7.6573    1.9495    4.9716 O   0  0
    1.1861    1.8843   -0.3953 O   0  0
   -0.5687   -1.9754   -1.0924 O   0  0
   -2.2464    0.5244    2.1273 O   0  0
    0.3090    1.5267    1.6878 O   0  0
   -6.7560    0.0818    2.4463 H   0  0
   -4.5867    1.4544    5.9086 H   0  0
   -4.6434   -0.0674    1.1847 H   0  0
   -2.4755    1.3033    4.6415 H   0  0
    0.3183   -2.7789    0.5811 H   0  0
   -1.4514   -2.9443    0.5259 H   0  0
   -0.2573   -0.9241    1.9779 H   0  0
    2.0585   -1.5911   -0.7899 H   0  0
    2.1361   -0.1077   -1.7598 H   0  0
    1.6168   -1.6304   -2.5077 H   0  0
   -1.5833    0.2765   -2.0641 H   0  0
   -0.5489   -0.5199   -3.2654 H   0  0
   -0.0295    1.0029   -2.5177 H   0  0
   -7.7641   -0.4783    8.4125 H   0  0
   -8.0592    1.2174    7.9346 H   0  0
   -9.4013    0.1976    8.4852 H   0  0
   -8.2619   -2.6541    4.7329 H   0  0
   -7.0198   -1.9450    3.6628 H   0  0
   -6.6326   -3.3500    4.6730 H   0  0
    0.4889    3.7476    0.1827 H   0  0
   -0.8835    3.8885    1.3046 H   0  0
    0.5780    4.8751    1.5246 H   0  0
    0.8744    2.2102    4.2005 H   0  0
   -0.6524    2.9124    3.6959 H   0  0
    0.7571    3.9658    3.9477 H   0  0
    2.7904    1.9900    2.5846 H   0  0
    2.6480    2.5955    0.9201 H   0  0
    2.7851    3.7203    2.2907 H   0  0
   -2.8062   -1.3035    1.3798 H   0  0
   -2.5087   -0.0298    0.1684 H   0  0
   -9.4271    0.4423    6.0225 H   0  0
   -9.1466   -1.2494    6.4963 H   0  0
   -5.6935   -1.2757    5.6430 H   0  0
   -6.9207   -1.9878    6.7164 H   0  0
  1  3  2  0
  1  5  1  0
  2  4  1  0
  2  5  2  0
  3  6  1  0
  4  6  2  0
  5  7  1  0
  6 28  1  0
  7 24  1  0
  7 25  2  0
  8 23  1  0
  8 26  2  0
  8 29  1  0
  9 10  1  0
  9 27  1  0
 10 19  1  0
 10 23  1  0
 11 12  1  0
 11 13  1  0
 11 23  1  0
 11 27  1  0
 14 20  1  0
 15 21  1  0
 16 22  1  0
 17 22  1  0
 18 22  1  0
 19 28  1  0
 20 24  1  0
 21 24  1  0
 22 29  1  0
  1 30  1  0
  2 31  1  0
  3 32  1  0
  4 33  1  0
  9 34  1  0
  9 35  1  0
 10 36  1  0
 12 37  1  0
 12 38  1  0
 12 39  1  0
 13 40  1  0
 13 41  1  0
 13 42  1  0
 14 43  1  0
 14 44  1  0
 14 45  1  0
 15 46  1  0
 15 47  1  0
 15 48  1  0
 16 49  1  0
 16 50  1  0
 16 51  1  0
 17 52  1  0
 17 53  1  0
 17 54  1  0
 18 55  1  0
 18 56  1  0
 18 57  1  0
 19 58  1  0
 19 59  1  0
 20 60  1  0
 20 61  1  0
 21 62  1  0
 21 63  1  0
M  END
> <Name>
BR010488

$$$$
BR010489
  SciTegic05062102053D

 67 69  0  0  1  0            999 V2000
   -5.3621    2.1404    1.7209 C   0  0
   -4.1270    3.8303    0.5145 C   0  0
   -4.4119    1.1862    1.3573 C   0  0
   -3.1767    2.8762    0.1509 C   0  0
   -5.2197    3.4624    1.2995 C   0  0
   -3.3192    1.5541    0.5723 C   0  0
   -6.2128    4.4600    1.6797 C   0  0
   -0.4840   -1.6261   -1.4257 C   0  0
   -4.8600    4.9701    3.7897 C   0  0
   -6.9974    6.1099    3.3562 C   0  0
   -4.1807    6.3006    4.0790 C   0  0
   -6.3595    7.4615    3.6466 C   0  0
   -0.2673   -1.6897    2.2095 C   0  0
   -0.7213   -0.9175    0.9861 C   0  0  2  0  0  0
   -0.5105   -3.2476    0.5125 C   0  0
    0.8348   -3.9312    0.2579 C   0  0
   -1.6720   -4.1356    0.0700 C   0  0
   -1.6273   -0.5413   -3.8127 C   0  0
   -0.5756    1.6288   -3.1099 C   0  0
    0.8748   -0.3600   -3.6092 C   0  0
   -4.5913    8.5826    5.0082 C   0  0
   -2.1730   -0.4586    1.1118 C   0  0
   -0.4701    0.1064   -3.0536 C   0  0
   -5.9959    5.1572    2.8779 N   0  0
   -0.5707   -1.9074   -0.0684 N   0  0
   -5.2116    7.2716    4.6143 N   0  3
   -7.1823    4.6519    0.9465 O   0  0
   -0.3568   -2.4724   -2.3073 O   0  0
   -0.6456   -3.0495    1.9407 O   0  0
   -2.3835    0.6149    0.2139 O   0  0
   -0.5541   -0.2813   -1.6777 O   0  0
   -6.2093    1.8421    2.3332 H   0  0
   -4.0067    4.8580    0.1812 H   0  0
   -4.5285    0.1580    1.6885 H   0  0
   -2.3277    3.1686   -0.4611 H   0  0
   -4.1283    4.2699    3.3795 H   0  0
   -5.2526    4.5264    4.7126 H   0  0
   -7.4459    5.6886    4.2638 H   0  0
   -7.7978    6.2294    2.6190 H   0  0
   -3.4060    6.1864    4.8438 H   0  0
   -3.7501    6.7447    3.1745 H   0  0
   -5.9497    7.9211    2.7401 H   0  0
   -7.0785    8.1408    4.1154 H   0  0
    0.8229   -1.6588    2.3186 H   0  0
   -0.7213   -1.3525    3.1455 H   0  0
   -0.0825   -0.0480    0.7991 H   0  0
    1.6435   -3.2795    0.5810 H   0  0
    0.9442   -4.1396   -0.8040 H   0  0
    0.8820   -4.8649    0.8140 H   0  0
   -2.6167   -3.6293    0.2606 H   0  0
   -1.6514   -5.0728    0.6235 H   0  0
   -1.5891   -4.3478   -0.9946 H   0  0
   -1.5552   -1.6341   -3.7747 H   0  0
   -2.5970   -0.2422   -3.4016 H   0  0
   -1.6015   -0.2665   -4.8734 H   0  0
    0.2528    2.0977   -2.5665 H   0  0
   -1.4966    1.9744   -2.6267 H   0  0
   -0.5660    1.9966   -4.1411 H   0  0
    1.7050    0.1044   -3.0649 H   0  0
    0.9833   -1.4474   -3.5429 H   0  0
    0.9876   -0.0621   -4.6579 H   0  0
   -4.1702    9.0363    4.1092 H   0  0
   -5.3772    9.2098    5.4333 H   0  0
   -3.8127    8.3758    5.7449 H   0  0
   -2.3679   -0.1224    2.1295 H   0  0
   -2.8438   -1.2787    0.8587 H   0  0
   -5.6014    6.8620    5.4742 H   0  0
  1  3  1  0
  1  5  2  0
  2  4  2  0
  2  5  1  0
  3  6  2  0
  4  6  1  0
  5  7  1  0
  6 30  1  0
  7 24  1  0
  7 27  2  0
  8 25  1  0
  8 28  2  0
  8 31  1  0
  9 11  1  0
  9 24  1  0
 10 12  1  0
 10 24  1  0
 11 26  1  0
 12 26  1  0
 13 14  1  0
 13 29  1  0
 14 22  1  0
 14 25  1  0
 15 16  1  0
 15 17  1  0
 15 25  1  0
 15 29  1  0
 18 23  1  0
 19 23  1  0
 20 23  1  0
 21 26  1  0
 22 30  1  0
 23 31  1  0
  1 32  1  0
  2 33  1  0
  3 34  1  0
  4 35  1  0
  9 36  1  0
  9 37  1  0
 10 38  1  0
 10 39  1  0
 11 40  1  0
 11 41  1  0
 12 42  1  0
 12 43  1  0
 13 44  1  0
 13 45  1  0
 14 46  1  0
 16 47  1  0
 16 48  1  0
 16 49  1  0
 17 50  1  0
 17 51  1  0
 17 52  1  0
 18 53  1  0
 18 54  1  0
 18 55  1  0
 19 56  1  0
 19 57  1  0
 19 58  1  0
 20 59  1  0
 20 60  1  0
 20 61  1  0
 21 62  1  0
 21 63  1  0
 21 64  1  0
 22 65  1  0
 22 66  1  0
 26 67  1  0
M  CHG  1  26   1
M  END
> <Name>
BR010489

$$$$
BR010490
  SciTegic05062102053D

 61 63  0  0  1  0            999 V2000
  -10.1449    2.6794    8.7752 C   0  0
  -10.3308    1.6975    7.8022 C   0  0
   -8.9367    3.3732    8.8440 C   0  0
   -5.8227    0.3512    2.9340 C   0  0
   -4.6060    1.1205    4.8743 C   0  0
   -9.3086    1.4093    6.8979 C   0  0
   -7.9145    3.0850    7.9397 C   0  0
   -4.6282    0.2660    2.2188 C   0  0
   -3.4115    1.0352    4.1591 C   0  0
   -5.8116    0.7785    4.2618 C   0  0
   -8.1004    2.1030    6.9667 C   0  0
   -3.4226    0.6080    2.8313 C   0  0
   -7.0569    0.8672    5.0077 C   0  0
    0.5585    1.1750    0.3874 C   0  0
   -0.6157   -2.2720    0.3126 C   0  0
   -0.7213   -0.9175    0.9861 C   0  0  2  0  0  0
    0.1378   -0.7189   -1.2321 C   0  0
    1.5899   -1.0343   -1.5983 C   0  0
   -0.5536    0.0641   -2.3466 C   0  0
    0.2091    3.8850    1.2333 C   0  0
    0.4335    2.9906    3.5698 C   0  0
    2.3472    2.7723    1.9579 C   0  0
   -2.1730   -0.4586    1.1118 C   0  0
    0.8267    2.7943    2.1072 C   0  0
    0.0232   -0.0670    0.0714 N   0  0
   -7.0617    1.8100    6.0474 N   0  0
   -8.0217    0.1326    4.7542 O   0  0
    1.1861    1.8843   -0.3953 O   0  0
   -0.5687   -1.9754   -1.0924 O   0  0
   -2.2464    0.5244    2.1273 O   0  0
    0.3090    1.5267    1.6878 O   0  0
  -10.9409    2.9047    9.4790 H   0  0
  -11.2716    1.1577    7.7478 H   0  0
   -8.7926    4.1385    9.6012 H   0  0
   -6.7560    0.0818    2.4463 H   0  0
   -4.5867    1.4544    5.9086 H   0  0
   -9.4650    0.6420    6.1438 H   0  0
   -6.9772    3.6323    8.0028 H   0  0
   -4.6434   -0.0674    1.1847 H   0  0
   -2.4755    1.3033    4.6415 H   0  0
    0.3183   -2.7789    0.5811 H   0  0
   -1.4514   -2.9443    0.5259 H   0  0
   -0.2573   -0.9241    1.9779 H   0  0
    2.0585   -1.5911   -0.7899 H   0  0
    2.1361   -0.1077   -1.7598 H   0  0
    1.6168   -1.6304   -2.5077 H   0  0
   -1.5833    0.2765   -2.0641 H   0  0
   -0.5489   -0.5199   -3.2654 H   0  0
   -0.0295    1.0029   -2.5177 H   0  0
    0.4889    3.7476    0.1827 H   0  0
   -0.8835    3.8885    1.3046 H   0  0
    0.5780    4.8751    1.5246 H   0  0
    0.8744    2.2102    4.2005 H   0  0
   -0.6524    2.9124    3.6959 H   0  0
    0.7571    3.9658    3.9477 H   0  0
    2.7904    1.9900    2.5846 H   0  0
    2.6480    2.5955    0.9201 H   0  0
    2.7851    3.7203    2.2907 H   0  0
   -2.8062   -1.3035    1.3798 H   0  0
   -2.5087   -0.0298    0.1684 H   0  0
   -6.2090    2.3537    6.1555 H   0  0
  1  2  1  0
  1  3  2  0
  2  6  2  0
  3  7  1  0
  4  8  1  0
  4 10  2  0
  5  9  2  0
  5 10  1  0
  6 11  1  0
  7 11  2  0
  8 12  2  0
  9 12  1  0
 10 13  1  0
 11 26  1  0
 12 30  1  0
 13 26  1  0
 13 27  2  0
 14 25  1  0
 14 28  2  0
 14 31  1  0
 15 16  1  0
 15 29  1  0
 16 23  1  0
 16 25  1  0
 17 18  1  0
 17 19  1  0
 17 25  1  0
 17 29  1  0
 20 24  1  0
 21 24  1  0
 22 24  1  0
 23 30  1  0
 24 31  1  0
  1 32  1  0
  2 33  1  0
  3 34  1  0
  4 35  1  0
  5 36  1  0
  6 37  1  0
  7 38  1  0
  8 39  1  0
  9 40  1  0
 15 41  1  0
 15 42  1  0
 16 43  1  0
 18 44  1  0
 18 45  1  0
 18 46  1  0
 19 47  1  0
 19 48  1  0
 19 49  1  0
 20 50  1  0
 20 51  1  0
 20 52  1  0
 21 53  1  0
 21 54  1  0
 21 55  1  0
 22 56  1  0
 22 57  1  0
 22 58  1  0
 23 59  1  0
 23 60  1  0
 26 61  1  0
M  END
> <Name>
BR010490

$$$$
BR010491
  SciTegic05062102053D

 64 66  0  0  1  0            999 V2000
  -10.5590    0.0675    5.4792 C   0  0
   -9.1927    1.7592    6.5319 C   0  0
  -11.5629    0.2920    6.4212 C   0  0
  -10.1966    1.9838    7.4740 C   0  0
   -5.8227    0.3509    2.9336 C   0  0
   -4.6064    1.1201    4.8743 C   0  0
   -4.6281    0.2659    2.2186 C   0  0
   -3.4117    1.0351    4.1592 C   0  0
   -9.3739    0.8011    5.5346 C   0  0
  -11.3817    1.2501    7.4186 C   0  0
   -5.8118    0.7780    4.2615 C   0  0
   -3.4226    0.6080    2.8313 C   0  0
   -8.3134    0.5652    4.5400 C   0  0
    0.5585    1.1750    0.3874 C   0  0
   -0.6157   -2.2720    0.3126 C   0  0
   -0.7213   -0.9175    0.9861 C   0  0  2  0  0  0
    0.1378   -0.7189   -1.2321 C   0  0
  -12.4559    1.4906    8.4251 C   0  0
    1.5899   -1.0343   -1.5983 C   0  0
   -0.5536    0.0641   -2.3466 C   0  0
    0.2091    3.8850    1.2333 C   0  0
    0.4335    2.9906    3.5698 C   0  0
    2.3472    2.7723    1.9579 C   0  0
   -2.1730   -0.4586    1.1118 C   0  0
    0.8267    2.7943    2.1072 C   0  0
    0.0232   -0.0670    0.0714 N   0  0
   -7.0066    0.8631    4.9768 N   0  0
   -8.5841    0.1695    3.4082 O   0  0
    1.1861    1.8843   -0.3953 O   0  0
   -0.5687   -1.9754   -1.0924 O   0  0
   -2.2464    0.5244    2.1273 O   0  0
    0.3090    1.5267    1.6878 O   0  0
  -10.7102   -0.6813    4.7060 H   0  0
   -8.2734    2.3367    6.5849 H   0  0
  -12.4831   -0.2839    6.3704 H   0  0
  -10.0472    2.7327    8.2474 H   0  0
   -6.7563    0.0817    2.4461 H   0  0
   -4.5858    1.4542    5.9085 H   0  0
   -4.6429   -0.0675    1.1845 H   0  0
   -2.4758    1.3030    4.6420 H   0  0
    0.3183   -2.7789    0.5811 H   0  0
   -1.4514   -2.9443    0.5259 H   0  0
   -0.2573   -0.9241    1.9779 H   0  0
  -12.3175    0.8368    9.2948 H   0  0
  -12.4532    2.5329    8.7692 H   0  0
  -13.4499    1.2990    8.0002 H   0  0
    2.0585   -1.5911   -0.7899 H   0  0
    2.1361   -0.1077   -1.7598 H   0  0
    1.6168   -1.6304   -2.5077 H   0  0
   -1.5833    0.2765   -2.0641 H   0  0
   -0.5489   -0.5199   -3.2654 H   0  0
   -0.0295    1.0029   -2.5177 H   0  0
    0.4889    3.7476    0.1827 H   0  0
   -0.8835    3.8885    1.3046 H   0  0
    0.5780    4.8751    1.5246 H   0  0
    0.8744    2.2102    4.2005 H   0  0
   -0.6524    2.9124    3.6959 H   0  0
    0.7571    3.9658    3.9477 H   0  0
    2.7904    1.9900    2.5846 H   0  0
    2.6480    2.5955    0.9201 H   0  0
    2.7851    3.7203    2.2907 H   0  0
   -2.8062   -1.3035    1.3798 H   0  0
   -2.5087   -0.0298    0.1684 H   0  0
   -6.9233    1.1846    5.9481 H   0  0
  1  3  2  0
  1  9  1  0
  2  4  1  0
  2  9  2  0
  3 10  1  0
  4 10  2  0
  5  7  1  0
  5 11  2  0
  6  8  2  0
  6 11  1  0
  7 12  2  0
  8 12  1  0
  9 13  1  0
 10 18  1  0
 11 27  1  0
 12 31  1  0
 13 27  1  0
 13 28  2  0
 14 26  1  0
 14 29  2  0
 14 32  1  0
 15 16  1  0
 15 30  1  0
 16 24  1  0
 16 26  1  0
 17 19  1  0
 17 20  1  0
 17 26  1  0
 17 30  1  0
 21 25  1  0
 22 25  1  0
 23 25  1  0
 24 31  1  0
 25 32  1  0
  1 33  1  0
  2 34  1  0
  3 35  1  0
  4 36  1  0
  5 37  1  0
  6 38  1  0
  7 39  1  0
  8 40  1  0
 15 41  1  0
 15 42  1  0
 16 43  1  0
 18 44  1  0
 18 45  1  0
 18 46  1  0
 19 47  1  0
 19 48  1  0
 19 49  1  0
 20 50  1  0
 20 51  1  0
 20 52  1  0
 21 53  1  0
 21 54  1  0
 21 55  1  0
 22 56  1  0
 22 57  1  0
 22 58  1  0
 23 59  1  0
 23 60  1  0
 23 61  1  0
 24 62  1  0
 24 63  1  0
 27 64  1  0
M  END
> <Name>
BR010491

$$$$
BR010492
  SciTegic05062102053D

 65 67  0  0  1  0            999 V2000
   -4.7126    3.9220   -4.9220 C   0  0
   -3.4946    3.9835   -2.8364 C   0  0
   -5.8411    1.1123   -0.0591 C   0  0
   -5.5810   -0.0327   -2.1705 C   0  0
   -4.7268    0.4401    0.4428 C   0  0
   -4.4666   -0.7050   -1.6686 C   0  0
   -5.8957    3.6800   -4.2240 C   0  0
   -4.6778    3.7416   -2.1384 C   0  0
   -3.5120    4.0737   -4.2283 C   0  0
   -6.2683    0.8759   -1.3658 C   0  0
   -4.0395   -0.4685   -0.3619 C   0  0
   -5.8783    3.5899   -2.8322 C   0  0
   -0.8052   -3.4103    1.3784 C   0  0
    0.2382    0.0708    1.6198 C   0  0
   -0.7213   -0.9175    0.9861 C   0  0  2  0  0  0
    0.1756   -1.7668    3.0287 C   0  0
   -2.2467    4.3316   -4.9744 C   0  0
    1.5797   -2.3651    3.1411 C   0  0
   -0.6713   -2.1159    4.2511 C   0  0
   -2.7644   -5.3548    0.6281 C   0  0
   -2.4053   -4.5398   -1.7206 C   0  0
   -0.5061   -5.5914   -0.4576 C   0  0
   -2.1730   -0.4586    1.1118 C   0  0
   -1.7657   -4.7335   -0.3474 C   0  0
   -0.4782   -2.1184    1.7693 N   0  0
   -7.4089    1.5639   -1.8797 N   0  0
   -0.5943   -4.4174    2.0500 O   0  0
   -8.4669    3.7437   -2.7908 O   0  0
   -7.2249    3.8312   -0.6115 O   0  0
    0.3074   -0.3249    2.9992 O   0  0
   -2.9424   -1.1304    0.1322 O   0  0
   -1.3950   -3.4399    0.1422 O   0  0
   -7.3798    3.2851   -1.9461 S   0  0
   -4.7358    3.9902   -6.0064 H   0  0
   -2.5638    4.1000   -2.2875 H   0  0
   -6.3697    1.8185    0.5760 H   0  0
   -5.9055   -0.2243   -3.1901 H   0  0
   -4.3989    0.6286    1.4615 H   0  0
   -3.9354   -1.4117   -2.3003 H   0  0
   -6.8256    3.5628   -4.7743 H   0  0
   -4.6527    3.6728   -1.0540 H   0  0
    1.2435   -0.0197    1.1927 H   0  0
   -0.0801    1.1144    1.5449 H   0  0
   -0.4860   -1.0862   -0.0700 H   0  0
   -2.0894    5.4100   -5.0983 H   0  0
   -1.3803    3.9120   -4.4468 H   0  0
   -2.2686    3.8666   -5.9687 H   0  0
    2.1611   -2.1024    2.2601 H   0  0
    1.5111   -3.4480    3.2162 H   0  0
    2.0742   -1.9741    4.0275 H   0  0
   -1.6639   -1.6804    4.1487 H   0  0
   -0.2003   -1.7230    5.1505 H   0  0
   -0.7634   -3.1971    4.3394 H   0  0
   -2.3091   -5.4954    1.6149 H   0  0
   -3.6573   -4.7316    0.7427 H   0  0
   -3.0772   -6.3484    0.2875 H   0  0
   -1.6923   -4.0943   -2.4237 H   0  0
   -3.2538   -3.8485   -1.6619 H   0  0
   -2.7587   -5.4877   -2.1391 H   0  0
    0.2104   -5.1460   -1.1573 H   0  0
   -0.0131   -5.7105    0.5127 H   0  0
   -0.7451   -6.5859   -0.8512 H   0  0
   -2.2368    0.6163    0.9472 H   0  0
   -2.5544   -0.7040    2.1022 H   0  0
   -7.8869    1.0979   -2.6679 H   0  0
  1  7  2  0
  1  9  1  0
  2  8  1  0
  2  9  2  0
  3  5  1  0
  3 10  2  0
  4  6  2  0
  4 10  1  0
  5 11  2  0
  6 11  1  0
  7 12  1  0
  8 12  2  0
  9 17  1  0
 10 26  1  0
 11 31  1  0
 12 33  1  0
 13 25  1  0
 13 27  2  0
 13 32  1  0
 14 15  1  0
 14 30  1  0
 15 23  1  0
 15 25  1  0
 16 18  1  0
 16 19  1  0
 16 25  1  0
 16 30  1  0
 20 24  1  0
 21 24  1  0
 22 24  1  0
 23 31  1  0
 24 32  1  0
 26 33  1  0
 28 33  2  0
 29 33  2  0
  1 34  1  0
  2 35  1  0
  3 36  1  0
  4 37  1  0
  5 38  1  0
  6 39  1  0
  7 40  1  0
  8 41  1  0
 14 42  1  0
 14 43  1  0
 15 44  1  0
 17 45  1  0
 17 46  1  0
 17 47  1  0
 18 48  1  0
 18 49  1  0
 18 50  1  0
 19 51  1  0
 19 52  1  0
 19 53  1  0
 20 54  1  0
 20 55  1  0
 20 56  1  0
 21 57  1  0
 21 58  1  0
 21 59  1  0
 22 60  1  0
 22 61  1  0
 22 62  1  0
 23 63  1  0
 23 64  1  0
 26 65  1  0
M  END
> <Name>
BR010492

$$$$
BR010493
  SciTegic05062102053D

 55 56  0  0  1  0            999 V2000
   -5.8227    0.3509    2.9336 C   0  0
   -4.6064    1.1200    4.8743 C   0  0
   -4.6281    0.2659    2.2186 C   0  0
   -3.4117    1.0350    4.1592 C   0  0
   -5.8118    0.7780    4.2615 C   0  0
   -3.4226    0.6080    2.8313 C   0  0
    0.5585    1.1750    0.3874 C   0  0
   -0.6157   -2.2720    0.3126 C   0  0
   -0.7213   -0.9175    0.9861 C   0  0  2  0  0  0
    0.1378   -0.7189   -1.2321 C   0  0
    1.5899   -1.0343   -1.5983 C   0  0
   -0.5536    0.0641   -2.3466 C   0  0
    0.2091    3.8850    1.2333 C   0  0
    0.4335    2.9906    3.5698 C   0  0
    2.3472    2.7723    1.9579 C   0  0
   -8.3786    2.8745    3.8238 C   0  0
   -2.1730   -0.4586    1.1118 C   0  0
    0.8267    2.7943    2.1072 C   0  0
    0.0232   -0.0670    0.0714 N   0  0
   -7.0345    0.8651    4.9935 N   0  0
    1.1861    1.8843   -0.3953 O   0  0
   -8.7267    2.2780    6.3319 O   0  0
   -6.5578    3.3563    5.6405 O   0  0
   -0.5687   -1.9754   -1.0924 O   0  0
   -2.2464    0.5244    2.1273 O   0  0
    0.3090    1.5267    1.6878 O   0  0
   -7.6416    2.4296    5.3805 S   0  0
   -6.7566    0.0819    2.4470 H   0  0
   -4.5869    1.4541    5.9084 H   0  0
   -4.6429   -0.0675    1.1845 H   0  0
   -2.4759    1.3030    4.6420 H   0  0
    0.3183   -2.7789    0.5811 H   0  0
   -1.4514   -2.9443    0.5259 H   0  0
   -0.2573   -0.9241    1.9779 H   0  0
    2.0585   -1.5911   -0.7899 H   0  0
    2.1361   -0.1077   -1.7598 H   0  0
    1.6168   -1.6304   -2.5077 H   0  0
   -1.5833    0.2765   -2.0641 H   0  0
   -0.5489   -0.5199   -3.2654 H   0  0
   -0.0295    1.0029   -2.5177 H   0  0
    0.4889    3.7476    0.1827 H   0  0
   -0.8835    3.8885    1.3046 H   0  0
    0.5780    4.8751    1.5246 H   0  0
    0.8744    2.2102    4.2005 H   0  0
   -0.6524    2.9124    3.6959 H   0  0
    0.7571    3.9658    3.9477 H   0  0
    2.7904    1.9900    2.5846 H   0  0
    2.6480    2.5955    0.9201 H   0  0
    2.7851    3.7203    2.2907 H   0  0
   -8.8151    3.8698    3.9214 H   0  0
   -7.5990    2.8721    3.0605 H   0  0
   -9.1497    2.1403    3.5857 H   0  0
   -2.8062   -1.3035    1.3798 H   0  0
   -2.5087   -0.0298    0.1684 H   0  0
   -7.7549    0.1853    4.6985 H   0  0
  1  3  1  0
  1  5  2  0
  2  4  2  0
  2  5  1  0
  3  6  2  0
  4  6  1  0
  5 20  1  0
  6 25  1  0
  7 19  1  0
  7 21  2  0
  7 26  1  0
  8  9  1  0
  8 24  1  0
  9 17  1  0
  9 19  1  0
 10 11  1  0
 10 12  1  0
 10 19  1  0
 10 24  1  0
 13 18  1  0
 14 18  1  0
 15 18  1  0
 16 27  1  0
 17 25  1  0
 18 26  1  0
 20 27  1  0
 22 27  2  0
 23 27  2  0
  1 28  1  0
  2 29  1  0
  3 30  1  0
  4 31  1  0
  8 32  1  0
  8 33  1  0
  9 34  1  0
 11 35  1  0
 11 36  1  0
 11 37  1  0
 12 38  1  0
 12 39  1  0
 12 40  1  0
 13 41  1  0
 13 42  1  0
 13 43  1  0
 14 44  1  0
 14 45  1  0
 14 46  1  0
 15 47  1  0
 15 48  1  0
 15 49  1  0
 16 50  1  0
 16 51  1  0
 16 52  1  0
 17 53  1  0
 17 54  1  0
 20 55  1  0
M  END
> <Name>
BR010493

$$$$
BR010494
  SciTegic05062102053D

 57 59  0  0  1  0            999 V2000
   -9.4396    1.0328    6.4340 C   0  0
   -8.3847    1.8948    6.7336 C   0  0
   -9.3001    0.0863    5.4189 C   0  0
   -7.1903    1.8104    6.0181 C   0  0
   -8.1057    0.0019    4.7034 C   0  0
   -5.8226    0.3501    2.9333 C   0  0
   -4.6067    1.1187    4.8744 C   0  0
   -4.6279    0.2659    2.2183 C   0  0
   -3.4120    1.0344    4.1594 C   0  0
   -7.0508    0.8640    5.0029 C   0  0
   -5.8120    0.7766    4.2613 C   0  0
   -3.4226    0.6080    2.8313 C   0  0
    0.5585    1.1750    0.3874 C   0  0
   -0.6157   -2.2720    0.3126 C   0  0
   -0.7213   -0.9175    0.9861 C   0  0  2  0  0  0
    0.1378   -0.7189   -1.2321 C   0  0
    1.5899   -1.0343   -1.5983 C   0  0
   -0.5536    0.0641   -2.3466 C   0  0
    0.2091    3.8850    1.2333 C   0  0
    0.4335    2.9906    3.5698 C   0  0
    2.3472    2.7723    1.9579 C   0  0
   -2.1730   -0.4586    1.1118 C   0  0
    0.8267    2.7943    2.1072 C   0  0
    0.0232   -0.0670    0.0714 N   0  0
    1.1861    1.8843   -0.3953 O   0  0
   -0.5687   -1.9754   -1.0924 O   0  0
   -2.2464    0.5244    2.1273 O   0  0
    0.3090    1.5267    1.6878 O   0  0
  -10.3688    1.0976    6.9924 H   0  0
   -8.4925    2.6306    7.5251 H   0  0
  -10.1205   -0.5861    5.1860 H   0  0
   -6.3771    2.4893    6.2638 H   0  0
   -8.0113   -0.7413    3.9152 H   0  0
   -6.7541    0.0800    2.4416 H   0  0
   -4.5819    1.4528    5.9089 H   0  0
   -4.6425   -0.0672    1.1841 H   0  0
   -2.4760    1.3020    4.6422 H   0  0
    0.3183   -2.7789    0.5811 H   0  0
   -1.4514   -2.9443    0.5259 H   0  0
   -0.2573   -0.9241    1.9779 H   0  0
    2.0585   -1.5911   -0.7899 H   0  0
    2.1361   -0.1077   -1.7598 H   0  0
    1.6168   -1.6304   -2.5077 H   0  0
   -1.5833    0.2765   -2.0641 H   0  0
   -0.5489   -0.5199   -3.2654 H   0  0
   -0.0295    1.0029   -2.5177 H   0  0
    0.4889    3.7476    0.1827 H   0  0
   -0.8835    3.8885    1.3046 H   0  0
    0.5780    4.8751    1.5246 H   0  0
    0.8744    2.2102    4.2005 H   0  0
   -0.6524    2.9124    3.6959 H   0  0
    0.7571    3.9658    3.9477 H   0  0
    2.7904    1.9900    2.5846 H   0  0
    2.6480    2.5955    0.9201 H   0  0
    2.7851    3.7203    2.2907 H   0  0
   -2.8062   -1.3035    1.3798 H   0  0
   -2.5087   -0.0298    0.1684 H   0  0
  1  2  1  0
  1  3  2  0
  2  4  2  0
  3  5  1  0
  4 10  1  0
  5 10  2  0
  6  8  2  0
  6 11  1  0
  7  9  1  0
  7 11  2  0
  8 12  1  0
  9 12  2  0
 10 11  1  0
 12 27  1  0
 13 24  1  0
 13 25  2  0
 13 28  1  0
 14 15  1  0
 14 26  1  0
 15 22  1  0
 15 24  1  0
 16 17  1  0
 16 18  1  0
 16 24  1  0
 16 26  1  0
 19 23  1  0
 20 23  1  0
 21 23  1  0
 22 27  1  0
 23 28  1  0
  1 29  1  0
  2 30  1  0
  3 31  1  0
  4 32  1  0
  5 33  1  0
  6 34  1  0
  7 35  1  0
  8 36  1  0
  9 37  1  0
 14 38  1  0
 14 39  1  0
 15 40  1  0
 17 41  1  0
 17 42  1  0
 17 43  1  0
 18 44  1  0
 18 45  1  0
 18 46  1  0
 19 47  1  0
 19 48  1  0
 19 49  1  0
 20 50  1  0
 20 51  1  0
 20 52  1  0
 21 53  1  0
 21 54  1  0
 21 55  1  0
 22 56  1  0
 22 57  1  0
M  END
> <Name>
BR010494

$$$$
BR010495
  SciTegic05062102053D

 64 66  0  0  1  0            999 V2000
   -5.8227    0.3510    2.9341 C   0  0
   -5.8116    0.7778    4.2619 C   0  0
   -3.7391    3.2628   10.2095 C   0  0
   -1.8119    4.3621    9.2533 C   0  0
   -4.0390    2.7067    8.9660 C   0  0
   -2.1117    3.8060    8.0097 C   0  0
   -4.6282    0.2660    2.2188 C   0  0
   -3.4115    1.0349    4.1592 C   0  0
   -4.6060    1.1198    4.8745 C   0  0
   -2.6256    4.0906   10.3532 C   0  0
   -3.2253    2.9783    7.8661 C   0  0
   -3.4226    0.6080    2.8313 C   0  0
   -4.5939    1.5647    6.2592 C   0  0
    0.5585    1.1750    0.3874 C   0  0
   -0.6157   -2.2720    0.3126 C   0  0
   -0.7213   -0.9175    0.9861 C   0  0  2  0  0  0
    0.1378   -0.7189   -1.2321 C   0  0
   -2.3051    4.6852   11.6828 C   0  0
    1.5899   -1.0343   -1.5983 C   0  0
   -0.5536    0.0641   -2.3466 C   0  0
    0.2091    3.8850    1.2333 C   0  0
    0.4335    2.9906    3.5698 C   0  0
    2.3472    2.7723    1.9579 C   0  0
   -2.1730   -0.4586    1.1118 C   0  0
    0.8267    2.7943    2.1072 C   0  0
    0.0232   -0.0670    0.0714 N   0  0
   -3.5296    2.4130    6.6020 N   0  0
   -5.4478    1.1854    7.0725 O   0  0
    1.1861    1.8843   -0.3953 O   0  0
   -0.5687   -1.9754   -1.0924 O   0  0
   -2.2464    0.5244    2.1273 O   0  0
    0.3090    1.5267    1.6878 O   0  0
   -6.7614    0.0847    2.4573 H   0  0
   -6.7478    0.8394    4.8105 H   0  0
   -4.3799    3.0477   11.0606 H   0  0
   -0.9427    5.0065    9.3560 H   0  0
   -4.9091    2.0628    8.8656 H   0  0
   -1.4714    4.0251    7.1589 H   0  0
   -4.6433   -0.0672    1.1847 H   0  0
   -2.4686    1.2997    4.6323 H   0  0
    0.3183   -2.7789    0.5811 H   0  0
   -1.4514   -2.9443    0.5259 H   0  0
   -0.2573   -0.9241    1.9779 H   0  0
   -1.6436    4.0187   12.2498 H   0  0
   -1.8090    5.6584   11.5750 H   0  0
   -3.2152    4.8563   12.2725 H   0  0
    2.0585   -1.5911   -0.7899 H   0  0
    2.1361   -0.1077   -1.7598 H   0  0
    1.6168   -1.6304   -2.5077 H   0  0
   -1.5833    0.2765   -2.0641 H   0  0
   -0.5489   -0.5199   -3.2654 H   0  0
   -0.0295    1.0029   -2.5177 H   0  0
    0.4889    3.7476    0.1827 H   0  0
   -0.8835    3.8885    1.3046 H   0  0
    0.5780    4.8751    1.5246 H   0  0
    0.8744    2.2102    4.2005 H   0  0
   -0.6524    2.9124    3.6959 H   0  0
    0.7571    3.9658    3.9477 H   0  0
    2.7904    1.9900    2.5846 H   0  0
    2.6480    2.5955    0.9201 H   0  0
    2.7851    3.7203    2.2907 H   0  0
   -2.8062   -1.3035    1.3798 H   0  0
   -2.5087   -0.0298    0.1684 H   0  0
   -2.8941    2.6534    5.8453 H   0  0
  1  2  1  0
  1  7  2  0
  2  9  2  0
  3  5  2  0
  3 10  1  0
  4  6  1  0
  4 10  2  0
  5 11  1  0
  6 11  2  0
  7 12  1  0
  8  9  1  0
  8 12  2  0
  9 13  1  0
 10 18  1  0
 11 27  1  0
 12 31  1  0
 13 27  1  0
 13 28  2  0
 14 26  1  0
 14 29  2  0
 14 32  1  0
 15 16  1  0
 15 30  1  0
 16 24  1  0
 16 26  1  0
 17 19  1  0
 17 20  1  0
 17 26  1  0
 17 30  1  0
 21 25  1  0
 22 25  1  0
 23 25  1  0
 24 31  1  0
 25 32  1  0
  1 33  1  0
  2 34  1  0
  3 35  1  0
  4 36  1  0
  5 37  1  0
  6 38  1  0
  7 39  1  0
  8 40  1  0
 15 41  1  0
 15 42  1  0
 16 43  1  0
 18 44  1  0
 18 45  1  0
 18 46  1  0
 19 47  1  0
 19 48  1  0
 19 49  1  0
 20 50  1  0
 20 51  1  0
 20 52  1  0
 21 53  1  0
 21 54  1  0
 21 55  1  0
 22 56  1  0
 22 57  1  0
 22 58  1  0
 23 59  1  0
 23 60  1  0
 23 61  1  0
 24 62  1  0
 24 63  1  0
 27 64  1  0
M  END
> <Name>
BR010495

$$$$
BR010496
  SciTegic05062102053D

 64 66  0  0  1  0            999 V2000
   -5.8227    0.3511    2.9337 C   0  0
   -3.0010    3.1888    9.0774 C   0  0
   -4.9348    1.7425    9.0037 C   0  0
   -3.3066    3.5304   10.3948 C   0  0
   -5.2405    2.0841   10.3212 C   0  0
   -5.8119    0.7782    4.2614 C   0  0
   -4.6281    0.2659    2.2186 C   0  0
   -3.4117    1.0351    4.1591 C   0  0
   -3.8151    2.2949    8.3819 C   0  0
   -4.4263    2.9780   11.0167 C   0  0
   -4.6064    1.1202    4.8742 C   0  0
   -3.4226    0.6080    2.8313 C   0  0
   -3.4930    1.9331    6.9908 C   0  0
    0.5585    1.1750    0.3874 C   0  0
   -0.6157   -2.2720    0.3126 C   0  0
   -0.7213   -0.9175    0.9861 C   0  0  2  0  0  0
    0.1378   -0.7189   -1.2321 C   0  0
   -4.7521    3.3428   12.4258 C   0  0
    1.5899   -1.0343   -1.5983 C   0  0
   -0.5536    0.0641   -2.3466 C   0  0
    0.2091    3.8850    1.2333 C   0  0
    0.4335    2.9906    3.5698 C   0  0
    2.3472    2.7723    1.9579 C   0  0
   -2.1730   -0.4586    1.1118 C   0  0
    0.8267    2.7943    2.1072 C   0  0
    0.0232   -0.0670    0.0714 N   0  0
   -4.5959    1.5472    6.2025 N   0  0
   -2.3321    1.9439    6.5869 O   0  0
    1.1861    1.8843   -0.3953 O   0  0
   -0.5687   -1.9754   -1.0924 O   0  0
   -2.2464    0.5244    2.1273 O   0  0
    0.3090    1.5267    1.6878 O   0  0
   -6.7614    0.0840    2.4572 H   0  0
   -2.1262    3.6248    8.6020 H   0  0
   -5.5763    1.0450    8.4715 H   0  0
   -2.6667    4.2274   10.9293 H   0  0
   -6.1146    1.6485   10.7981 H   0  0
   -6.7489    0.8412    4.8088 H   0  0
   -4.6435   -0.0681    1.1849 H   0  0
   -2.4691    1.3003    4.6328 H   0  0
    0.3183   -2.7789    0.5811 H   0  0
   -1.4514   -2.9443    0.5259 H   0  0
   -0.2573   -0.9241    1.9779 H   0  0
   -5.4091    4.2208   12.4508 H   0  0
   -5.2553    2.5168   12.9449 H   0  0
   -3.8437    3.5713   12.9982 H   0  0
    2.0585   -1.5911   -0.7899 H   0  0
    2.1361   -0.1077   -1.7598 H   0  0
    1.6168   -1.6304   -2.5077 H   0  0
   -1.5833    0.2765   -2.0641 H   0  0
   -0.5489   -0.5199   -3.2654 H   0  0
   -0.0295    1.0029   -2.5177 H   0  0
    0.4889    3.7476    0.1827 H   0  0
   -0.8835    3.8885    1.3046 H   0  0
    0.5780    4.8751    1.5246 H   0  0
    0.8744    2.2102    4.2005 H   0  0
   -0.6524    2.9124    3.6959 H   0  0
    0.7571    3.9658    3.9477 H   0  0
    2.7904    1.9900    2.5846 H   0  0
    2.6480    2.5955    0.9201 H   0  0
    2.7851    3.7203    2.2907 H   0  0
   -2.8062   -1.3035    1.3798 H   0  0
   -2.5087   -0.0298    0.1684 H   0  0
   -5.5109    1.5852    6.6662 H   0  0
  1  6  1  0
  1  7  2  0
  2  4  2  0
  2  9  1  0
  3  5  1  0
  3  9  2  0
  4 10  1  0
  5 10  2  0
  6 11  2  0
  7 12  1  0
  8 11  1  0
  8 12  2  0
  9 13  1  0
 10 18  1  0
 11 27  1  0
 12 31  1  0
 13 27  1  0
 13 28  2  0
 14 26  1  0
 14 29  2  0
 14 32  1  0
 15 16  1  0
 15 30  1  0
 16 24  1  0
 16 26  1  0
 17 19  1  0
 17 20  1  0
 17 26  1  0
 17 30  1  0
 21 25  1  0
 22 25  1  0
 23 25  1  0
 24 31  1  0
 25 32  1  0
  1 33  1  0
  2 34  1  0
  3 35  1  0
  4 36  1  0
  5 37  1  0
  6 38  1  0
  7 39  1  0
  8 40  1  0
 15 41  1  0
 15 42  1  0
 16 43  1  0
 18 44  1  0
 18 45  1  0
 18 46  1  0
 19 47  1  0
 19 48  1  0
 19 49  1  0
 20 50  1  0
 20 51  1  0
 20 52  1  0
 21 53  1  0
 21 54  1  0
 21 55  1  0
 22 56  1  0
 22 57  1  0
 22 58  1  0
 23 59  1  0
 23 60  1  0
 23 61  1  0
 24 62  1  0
 24 63  1  0
 27 64  1  0
M  END
> <Name>
BR010496

$$$$
BR010497
  SciTegic05062102053D

 65 67  0  0  1  0            999 V2000
   -6.1944    0.3704    0.9341 C   0  0
   -7.0605   -4.4080    2.0458 C   0  0
   -6.6793   -5.9706    0.2430 C   0  0
   -7.0100   -0.2555   -0.0086 C   0  0
   -4.8315    0.0770    0.9817 C   0  0
   -7.6906   -3.5367    1.1574 C   0  0
   -7.3094   -5.0992   -0.6455 C   0  0
   -5.1000   -1.4683   -0.8560 C   0  0
   -6.5548   -5.6250    1.5886 C   0  0
   -6.4628   -1.1749   -0.9036 C   0  0
   -4.2844   -0.8423    0.0867 C   0  0
   -7.8151   -3.8823   -0.1882 C   0  0
   -0.8052   -3.4103    1.3784 C   0  0
    0.2382    0.0708    1.6198 C   0  0
   -0.7213   -0.9175    0.9861 C   0  0  2  0  0  0
    0.1756   -1.7668    3.0287 C   0  0
   -5.8803   -6.5565    2.5381 C   0  0
    1.5797   -2.3651    3.1411 C   0  0
   -0.6713   -2.1159    4.2511 C   0  0
   -2.7644   -5.3548    0.6281 C   0  0
   -2.4053   -4.5398   -1.7206 C   0  0
   -0.5061   -5.5914   -0.4576 C   0  0
   -2.1730   -0.4586    1.1118 C   0  0
   -1.7657   -4.7335   -0.3474 C   0  0
   -0.4782   -2.1184    1.7693 N   0  0
   -7.2980   -1.8168   -1.8677 N   0  0
   -0.5943   -4.4174    2.0500 O   0  0
   -9.5085   -1.9475   -0.5274 O   0  0
   -9.1472   -3.5691   -2.4087 O   0  0
    0.3074   -0.3249    2.9992 O   0  0
   -2.9424   -1.1304    0.1322 O   0  0
   -1.3950   -3.4399    0.1422 O   0  0
   -8.6166   -2.7777   -1.3153 S   0  0
   -6.6203    1.0865    1.6307 H   0  0
   -6.9678   -4.1302    3.0923 H   0  0
   -6.2879   -6.9164   -0.1223 H   0  0
   -8.0708   -0.0204   -0.0374 H   0  0
   -4.2012    0.5682    1.7179 H   0  0
   -8.0806   -2.5908    1.5239 H   0  0
   -7.4006   -5.3782   -1.6919 H   0  0
   -4.6693   -2.1846   -1.5517 H   0  0
    1.2435   -0.0197    1.1927 H   0  0
   -0.0801    1.1144    1.5449 H   0  0
   -0.4860   -1.0862   -0.0700 H   0  0
   -6.6103   -7.2452    2.9808 H   0  0
   -5.1056   -7.1481    2.0333 H   0  0
   -5.3831   -6.0081    3.3488 H   0  0
    2.1611   -2.1024    2.2601 H   0  0
    1.5111   -3.4480    3.2162 H   0  0
    2.0742   -1.9741    4.0275 H   0  0
   -1.6639   -1.6804    4.1487 H   0  0
   -0.2003   -1.7230    5.1505 H   0  0
   -0.7634   -3.1971    4.3394 H   0  0
   -2.3091   -5.4954    1.6149 H   0  0
   -3.6573   -4.7316    0.7427 H   0  0
   -3.0772   -6.3484    0.2875 H   0  0
   -1.6923   -4.0943   -2.4237 H   0  0
   -3.2538   -3.8485   -1.6619 H   0  0
   -2.7587   -5.4877   -2.1391 H   0  0
    0.2104   -5.1460   -1.1573 H   0  0
   -0.0131   -5.7105    0.5127 H   0  0
   -0.7451   -6.5859   -0.8512 H   0  0
   -2.2368    0.6163    0.9472 H   0  0
   -2.5544   -0.7040    2.1022 H   0  0
   -6.8106   -2.1723   -2.7061 H   0  0
  1  4  1  0
  1  5  2  0
  2  6  2  0
  2  9  1  0
  3  7  1  0
  3  9  2  0
  4 10  2  0
  5 11  1  0
  6 12  1  0
  7 12  2  0
  8 10  1  0
  8 11  2  0
  9 17  1  0
 10 26  1  0
 11 31  1  0
 12 33  1  0
 13 25  1  0
 13 27  2  0
 13 32  1  0
 14 15  1  0
 14 30  1  0
 15 23  1  0
 15 25  1  0
 16 18  1  0
 16 19  1  0
 16 25  1  0
 16 30  1  0
 20 24  1  0
 21 24  1  0
 22 24  1  0
 23 31  1  0
 24 32  1  0
 26 33  1  0
 28 33  2  0
 29 33  2  0
  1 34  1  0
  2 35  1  0
  3 36  1  0
  4 37  1  0
  5 38  1  0
  6 39  1  0
  7 40  1  0
  8 41  1  0
 14 42  1  0
 14 43  1  0
 15 44  1  0
 17 45  1  0
 17 46  1  0
 17 47  1  0
 18 48  1  0
 18 49  1  0
 18 50  1  0
 19 51  1  0
 19 52  1  0
 19 53  1  0
 20 54  1  0
 20 55  1  0
 20 56  1  0
 21 57  1  0
 21 58  1  0
 21 59  1  0
 22 60  1  0
 22 61  1  0
 22 62  1  0
 23 63  1  0
 23 64  1  0
 26 65  1  0
M  END
> <Name>
BR010497

$$$$
BR010498
  SciTegic05062102053D

 57 59  0  0  1  0            999 V2000
   -4.5714    2.4150    8.9074 C   0  0
   -3.6072    2.8844    8.0155 C   0  0
   -5.5474    1.5189    8.4713 C   0  0
   -5.8227    0.3507    2.9330 C   0  0
   -3.6190    2.4579    6.6875 C   0  0
   -5.5593    1.0924    7.1433 C   0  0
   -5.8122    0.7775    4.2609 C   0  0
   -4.6279    0.2659    2.2182 C   0  0
   -3.4121    1.0348    4.1592 C   0  0
   -4.5951    1.5619    6.2514 C   0  0
   -4.6069    1.1196    4.8740 C   0  0
   -3.4226    0.6080    2.8313 C   0  0
    0.5585    1.1750    0.3874 C   0  0
   -0.6157   -2.2720    0.3126 C   0  0
   -0.7213   -0.9175    0.9861 C   0  0  2  0  0  0
    0.1378   -0.7189   -1.2321 C   0  0
    1.5899   -1.0343   -1.5983 C   0  0
   -0.5536    0.0641   -2.3466 C   0  0
    0.2091    3.8850    1.2333 C   0  0
    0.4335    2.9906    3.5698 C   0  0
    2.3472    2.7723    1.9579 C   0  0
   -2.1730   -0.4586    1.1118 C   0  0
    0.8267    2.7943    2.1072 C   0  0
    0.0232   -0.0670    0.0714 N   0  0
    1.1861    1.8843   -0.3953 O   0  0
   -0.5687   -1.9754   -1.0924 O   0  0
   -2.2464    0.5244    2.1273 O   0  0
    0.3090    1.5267    1.6878 O   0  0
   -4.5609    2.7459    9.9417 H   0  0
   -2.8461    3.5808    8.3552 H   0  0
   -6.2977    1.1519    9.1656 H   0  0
   -6.7613    0.0846    2.4556 H   0  0
   -2.8604    2.8328    6.0044 H   0  0
   -6.3259    0.3932    6.8180 H   0  0
   -6.7519    0.8383    4.8049 H   0  0
   -4.6420   -0.0674    1.1841 H   0  0
   -2.4672    1.3005    4.6290 H   0  0
    0.3183   -2.7789    0.5811 H   0  0
   -1.4514   -2.9443    0.5259 H   0  0
   -0.2573   -0.9241    1.9779 H   0  0
    2.0585   -1.5911   -0.7899 H   0  0
    2.1361   -0.1077   -1.7598 H   0  0
    1.6168   -1.6304   -2.5077 H   0  0
   -1.5833    0.2765   -2.0641 H   0  0
   -0.5489   -0.5199   -3.2654 H   0  0
   -0.0295    1.0029   -2.5177 H   0  0
    0.4889    3.7476    0.1827 H   0  0
   -0.8835    3.8885    1.3046 H   0  0
    0.5780    4.8751    1.5246 H   0  0
    0.8744    2.2102    4.2005 H   0  0
   -0.6524    2.9124    3.6959 H   0  0
    0.7571    3.9658    3.9477 H   0  0
    2.7904    1.9900    2.5846 H   0  0
    2.6480    2.5955    0.9201 H   0  0
    2.7851    3.7203    2.2907 H   0  0
   -2.8062   -1.3035    1.3798 H   0  0
   -2.5087   -0.0298    0.1684 H   0  0
  1  2  1  0
  1  3  2  0
  2  5  2  0
  3  6  1  0
  4  7  1  0
  4  8  2  0
  5 10  1  0
  6 10  2  0
  7 11  2  0
  8 12  1  0
  9 11  1  0
  9 12  2  0
 10 11  1  0
 12 27  1  0
 13 24  1  0
 13 25  2  0
 13 28  1  0
 14 15  1  0
 14 26  1  0
 15 22  1  0
 15 24  1  0
 16 17  1  0
 16 18  1  0
 16 24  1  0
 16 26  1  0
 19 23  1  0
 20 23  1  0
 21 23  1  0
 22 27  1  0
 23 28  1  0
  1 29  1  0
  2 30  1  0
  3 31  1  0
  4 32  1  0
  5 33  1  0
  6 34  1  0
  7 35  1  0
  8 36  1  0
  9 37  1  0
 14 38  1  0
 14 39  1  0
 15 40  1  0
 17 41  1  0
 17 42  1  0
 17 43  1  0
 18 44  1  0
 18 45  1  0
 18 46  1  0
 19 47  1  0
 19 48  1  0
 19 49  1  0
 20 50  1  0
 20 51  1  0
 20 52  1  0
 21 53  1  0
 21 54  1  0
 21 55  1  0
 22 56  1  0
 22 57  1  0
M  END
> <Name>
BR010498

$$$$
BR010499
  SciTegic05062102053D

 60 62  0  0  1  0            999 V2000
   -5.8227    0.3512    2.9340 C   0  0
   -4.6060    1.1205    4.8743 C   0  0
   -4.6282    0.2660    2.2188 C   0  0
   -3.4115    1.0352    4.1591 C   0  0
   -5.8116    0.7785    4.2618 C   0  0
   -3.4226    0.6080    2.8313 C   0  0
   -8.8236   -0.3747    7.3244 C   0  0
   -8.4274    1.8702    7.7152 C   0  0
   -7.0569    0.8672    5.0077 C   0  0
    0.5585    1.1750    0.3874 C   0  0
  -10.0015    0.0953    8.1345 C   0  0
   -9.7394    1.5806    8.3929 C   0  0
   -0.6157   -2.2720    0.3126 C   0  0
   -0.7213   -0.9175    0.9861 C   0  0  2  0  0  0
    0.1378   -0.7189   -1.2321 C   0  0
    1.5899   -1.0343   -1.5983 C   0  0
   -0.5536    0.0641   -2.3466 C   0  0
    0.2091    3.8850    1.2333 C   0  0
    0.4335    2.9906    3.5698 C   0  0
    2.3472    2.7723    1.9579 C   0  0
   -2.1730   -0.4586    1.1118 C   0  0
    0.8267    2.7943    2.1072 C   0  0
   -8.0458    0.7175    7.1056 N   0  0
    0.0232   -0.0670    0.0714 N   0  0
   -8.6474   -1.5235    6.9492 O   0  0
   -7.8580    2.9505    7.7278 O   0  0
   -8.1602    1.1114    4.5005 O   0  0
    1.1861    1.8843   -0.3953 O   0  0
   -0.5687   -1.9754   -1.0924 O   0  0
   -2.2464    0.5244    2.1273 O   0  0
   -6.8596    0.6405    6.3434 O   0  0
    0.3090    1.5267    1.6878 O   0  0
   -6.7560    0.0818    2.4463 H   0  0
   -4.5867    1.4544    5.9086 H   0  0
   -4.6434   -0.0674    1.1847 H   0  0
   -2.4755    1.3033    4.6415 H   0  0
  -10.9246   -0.0525    7.5665 H   0  0
  -10.0554   -0.4670    9.0713 H   0  0
   -9.6573    1.7884    9.4638 H   0  0
  -10.5263    2.2045    7.9593 H   0  0
    0.3183   -2.7789    0.5811 H   0  0
   -1.4514   -2.9443    0.5259 H   0  0
   -0.2573   -0.9241    1.9779 H   0  0
    2.0585   -1.5911   -0.7899 H   0  0
    2.1361   -0.1077   -1.7598 H   0  0
    1.6168   -1.6304   -2.5077 H   0  0
   -1.5833    0.2765   -2.0641 H   0  0
   -0.5489   -0.5199   -3.2654 H   0  0
   -0.0295    1.0029   -2.5177 H   0  0
    0.4889    3.7476    0.1827 H   0  0
   -0.8835    3.8885    1.3046 H   0  0
    0.5780    4.8751    1.5246 H   0  0
    0.8744    2.2102    4.2005 H   0  0
   -0.6524    2.9124    3.6959 H   0  0
    0.7571    3.9658    3.9477 H   0  0
    2.7904    1.9900    2.5846 H   0  0
    2.6480    2.5955    0.9201 H   0  0
    2.7851    3.7203    2.2907 H   0  0
   -2.8062   -1.3035    1.3798 H   0  0
   -2.5087   -0.0298    0.1684 H   0  0
  1  3  2  0
  1  5  1  0
  2  4  1  0
  2  5  2  0
  3  6  1  0
  4  6  2  0
  5  9  1  0
  6 30  1  0
  7 11  1  0
  7 23  1  0
  7 25  2  0
  8 12  1  0
  8 23  1  0
  8 26  2  0
  9 27  2  0
  9 31  1  0
 10 24  1  0
 10 28  2  0
 10 32  1  0
 11 12  1  0
 13 14  1  0
 13 29  1  0
 14 21  1  0
 14 24  1  0
 15 16  1  0
 15 17  1  0
 15 24  1  0
 15 29  1  0
 18 22  1  0
 19 22  1  0
 20 22  1  0
 21 30  1  0
 22 32  1  0
 23 31  1  0
  1 33  1  0
  2 34  1  0
  3 35  1  0
  4 36  1  0
 11 37  1  0
 11 38  1  0
 12 39  1  0
 12 40  1  0
 13 41  1  0
 13 42  1  0
 14 43  1  0
 16 44  1  0
 16 45  1  0
 16 46  1  0
 17 47  1  0
 17 48  1  0
 17 49  1  0
 18 50  1  0
 18 51  1  0
 18 52  1  0
 19 53  1  0
 19 54  1  0
 19 55  1  0
 20 56  1  0
 20 57  1  0
 20 58  1  0
 21 59  1  0
 21 60  1  0
M  END
> <Name>
BR010499

$$$$
BR010500
  SciTegic05062102053D

 49 50  0  0  1  0            999 V2000
   -5.8227    0.3508    2.9335 C   0  0
   -4.6065    1.1200    4.8742 C   0  0
   -4.6280    0.2659    2.2185 C   0  0
   -3.4118    1.0350    4.1592 C   0  0
   -5.8119    0.7779    4.2614 C   0  0
   -3.4226    0.6080    2.8313 C   0  0
    0.5585    1.1750    0.3874 C   0  0
   -0.6157   -2.2720    0.3126 C   0  0
   -0.7213   -0.9175    0.9861 C   0  0  2  0  0  0
    0.1378   -0.7189   -1.2321 C   0  0
    1.5899   -1.0343   -1.5983 C   0  0
   -0.5536    0.0641   -2.3466 C   0  0
    0.2091    3.8850    1.2333 C   0  0
    0.4335    2.9906    3.5698 C   0  0
    2.3472    2.7723    1.9579 C   0  0
   -2.1730   -0.4586    1.1118 C   0  0
    0.8267    2.7943    2.1072 C   0  0
    0.0232   -0.0670    0.0714 N   0  0
   -7.0198    0.8638    4.9843 N   0  0
    1.1861    1.8843   -0.3953 O   0  0
   -0.5687   -1.9754   -1.0924 O   0  0
   -2.2464    0.5244    2.1273 O   0  0
    0.3090    1.5267    1.6878 O   0  0
   -6.7563    0.0818    2.4462 H   0  0
   -4.5866    1.4540    5.9084 H   0  0
   -4.6428   -0.0674    1.1844 H   0  0
   -2.4759    1.3028    4.6420 H   0  0
    0.3183   -2.7789    0.5811 H   0  0
   -1.4514   -2.9443    0.5259 H   0  0
   -0.2573   -0.9241    1.9779 H   0  0
    2.0585   -1.5911   -0.7899 H   0  0
    2.1361   -0.1077   -1.7598 H   0  0
    1.6168   -1.6304   -2.5077 H   0  0
   -1.5833    0.2765   -2.0641 H   0  0
   -0.5489   -0.5199   -3.2654 H   0  0
   -0.0295    1.0029   -2.5177 H   0  0
    0.4889    3.7476    0.1827 H   0  0
   -0.8835    3.8885    1.3046 H   0  0
    0.5780    4.8751    1.5246 H   0  0
    0.8744    2.2102    4.2005 H   0  0
   -0.6524    2.9124    3.6959 H   0  0
    0.7571    3.9658    3.9477 H   0  0
    2.7904    1.9900    2.5846 H   0  0
    2.6480    2.5955    0.9201 H   0  0
    2.7851    3.7203    2.2907 H   0  0
   -2.8062   -1.3035    1.3798 H   0  0
   -2.5087   -0.0298    0.1684 H   0  0
   -7.8819    0.6612    4.5198 H   0  0
   -7.0041    1.2162    5.9200 H   0  0
  1  3  2  0
  1  5  1  0
  2  4  1  0
  2  5  2  0
  3  6  1  0
  4  6  2  0
  5 19  1  0
  6 22  1  0
  7 18  1  0
  7 20  2  0
  7 23  1  0
  8  9  1  0
  8 21  1  0
  9 16  1  0
  9 18  1  0
 10 11  1  0
 10 12  1  0
 10 18  1  0
 10 21  1  0
 13 17  1  0
 14 17  1  0
 15 17  1  0
 16 22  1  0
 17 23  1  0
  1 24  1  0
  2 25  1  0
  3 26  1  0
  4 27  1  0
  8 28  1  0
  8 29  1  0
  9 30  1  0
 11 31  1  0
 11 32  1  0
 11 33  1  0
 12 34  1  0
 12 35  1  0
 12 36  1  0
 13 37  1  0
 13 38  1  0
 13 39  1  0
 14 40  1  0
 14 41  1  0
 14 42  1  0
 15 43  1  0
 15 44  1  0
 15 45  1  0
 16 46  1  0
 16 47  1  0
 19 48  1  0
 19 49  1  0
M  END
> <Name>
BR010500

$$$$
BR010501
  SciTegic05062102053D

 49 50  0  0  1  0            999 V2000
   -5.8227    0.3507    2.9331 C   0  0
   -5.8122    0.7774    4.2610 C   0  0
   -4.6279    0.2659    2.2183 C   0  0
   -3.4121    1.0348    4.1592 C   0  0
   -4.6069    1.1195    4.8741 C   0  0
   -3.4226    0.6080    2.8313 C   0  0
    0.5585    1.1750    0.3874 C   0  0
   -0.6157   -2.2720    0.3126 C   0  0
   -0.7213   -0.9175    0.9861 C   0  0  2  0  0  0
    0.1378   -0.7189   -1.2321 C   0  0
    1.5899   -1.0343   -1.5983 C   0  0
   -0.5536    0.0641   -2.3466 C   0  0
    0.2091    3.8850    1.2333 C   0  0
    0.4335    2.9906    3.5698 C   0  0
    2.3472    2.7723    1.9579 C   0  0
   -2.1730   -0.4586    1.1118 C   0  0
    0.8267    2.7943    2.1072 C   0  0
    0.0232   -0.0670    0.0714 N   0  0
   -4.5965    1.5522    6.2164 N   0  0
    1.1861    1.8843   -0.3953 O   0  0
   -0.5687   -1.9754   -1.0924 O   0  0
   -2.2464    0.5244    2.1273 O   0  0
    0.3090    1.5267    1.6878 O   0  0
   -6.7612    0.0844    2.4556 H   0  0
   -6.7493    0.8411    4.8082 H   0  0
   -4.6424   -0.0680    1.1843 H   0  0
   -2.4698    1.3006    4.6328 H   0  0
    0.3183   -2.7789    0.5811 H   0  0
   -1.4514   -2.9443    0.5259 H   0  0
   -0.2573   -0.9241    1.9779 H   0  0
    2.0585   -1.5911   -0.7899 H   0  0
    2.1361   -0.1077   -1.7598 H   0  0
    1.6168   -1.6304   -2.5077 H   0  0
   -1.5833    0.2765   -2.0641 H   0  0
   -0.5489   -0.5199   -3.2654 H   0  0
   -0.0295    1.0029   -2.5177 H   0  0
    0.4889    3.7476    0.1827 H   0  0
   -0.8835    3.8885    1.3046 H   0  0
    0.5780    4.8751    1.5246 H   0  0
    0.8744    2.2102    4.2005 H   0  0
   -0.6524    2.9124    3.6959 H   0  0
    0.7571    3.9658    3.9477 H   0  0
    2.7904    1.9900    2.5846 H   0  0
    2.6480    2.5955    0.9201 H   0  0
    2.7851    3.7203    2.2907 H   0  0
   -2.8062   -1.3035    1.3798 H   0  0
   -2.5087   -0.0298    0.1684 H   0  0
   -5.4641    1.6545    6.7028 H   0  0
   -3.7322    1.8393    6.6295 H   0  0
  1  2  1  0
  1  3  2  0
  2  5  2  0
  3  6  1  0
  4  5  1  0
  4  6  2  0
  5 19  1  0
  6 22  1  0
  7 18  1  0
  7 20  2  0
  7 23  1  0
  8  9  1  0
  8 21  1  0
  9 16  1  0
  9 18  1  0
 10 11  1  0
 10 12  1  0
 10 18  1  0
 10 21  1  0
 13 17  1  0
 14 17  1  0
 15 17  1  0
 16 22  1  0
 17 23  1  0
  1 24  1  0
  2 25  1  0
  3 26  1  0
  4 27  1  0
  8 28  1  0
  8 29  1  0
  9 30  1  0
 11 31  1  0
 11 32  1  0
 11 33  1  0
 12 34  1  0
 12 35  1  0
 12 36  1  0
 13 37  1  0
 13 38  1  0
 13 39  1  0
 14 40  1  0
 14 41  1  0
 14 42  1  0
 15 43  1  0
 15 44  1  0
 15 45  1  0
 16 46  1  0
 16 47  1  0
 19 48  1  0
 19 49  1  0
M  END
> <Name>
BR010501

$$$$
BR010502
  SciTegic05062102053D

 43 43  0  0  1  0            999 V2000
    1.6406   -2.7215    1.6146 C   0  0
   -0.5834   -3.2169   -1.5033 C   0  0
    0.8852    0.6158    3.6491 C   0  0
   -4.2076    0.0689   -2.3100 C   0  0
    0.5223   -1.0077    0.4336 C   0  0  1  0  0  0
   -0.5400   -1.0076   -0.6664 C   0  0  1  0  0  0
    0.2421    0.1143    1.4314 C   0  0  2  0  0  0
   -0.7022    0.3838   -1.2855 C   0  0  1  0  0  0
    0.0301    1.4576    0.7409 C   0  0  2  0  0  0
    1.4236   -4.0437    2.2859 C   0  0
   -0.1162   -4.0685   -2.6445 C   0  0
    2.0723    0.6714    4.5622 C   0  0
   -5.3717   -0.3116   -1.4462 C   0  0
   -1.8720    0.4249   -2.2663 C   0  0
    2.7238   -2.1563    1.5484 O   0  0
   -1.2430   -3.6352   -0.5614 O   0  0
   -0.2559    0.8952    3.9910 O   0  0
   -4.2952    0.3280   -3.5026 O   0  0
   -0.9533    1.3790   -0.2884 O   0  0
    0.4594   -2.2677    1.1047 O   0  0
   -0.1620   -1.9307   -1.6852 O   0  0
    1.2764    0.2114    2.4031 O   0  0
   -3.0548    0.0802   -1.5694 O   0  0
    1.6992    2.2427    0.0782 Br  0  0
    1.5294   -0.9343    0.0083 H   0  0
   -1.4951   -1.3511   -0.2452 H   0  0
   -0.6764   -0.1394    1.9786 H   0  0
    0.1976    0.6468   -1.8528 H   0  0
   -0.3127    2.1963    1.4723 H   0  0
    1.1723   -3.8887    3.3380 H   0  0
    2.3212   -4.6599    2.1906 H   0  0
    0.5919   -4.5640    1.8018 H   0  0
   -0.8662   -4.0676   -3.4393 H   0  0
    0.0735   -5.0863   -2.2945 H   0  0
    0.8160   -3.6591   -3.0445 H   0  0
    2.2063   -0.2944    5.0555 H   0  0
    1.9355    1.4657    5.3004 H   0  0
    2.9699    0.8916    3.9771 H   0  0
   -5.5041   -1.3963   -1.4590 H   0  0
   -6.2756    0.1913   -1.7991 H   0  0
   -5.1778    0.0038   -0.4168 H   0  0
   -1.7057   -0.2900   -3.0715 H   0  0
   -1.9749    1.4280   -2.6788 H   0  0
  1 10  1  0
  1 15  2  0
  1 20  1  0
  2 11  1  0
  2 16  2  0
  2 21  1  0
  3 12  1  0
  3 17  2  0
  3 22  1  0
  4 13  1  0
  4 18  2  0
  4 23  1  0
  5  6  1  0
  5  7  1  0
  5 20  1  0
  6  8  1  0
  6 21  1  0
  7  9  1  0
  7 22  1  0
  8 14  1  0
  8 19  1  0
  9 19  1  0
  9 24  1  0
 14 23  1  0
  5 25  1  0
  6 26  1  0
  7 27  1  0
  8 28  1  0
  9 29  1  0
 10 30  1  0
 10 31  1  0
 10 32  1  0
 11 33  1  0
 11 34  1  0
 11 35  1  0
 12 36  1  0
 12 37  1  0
 12 38  1  0
 13 39  1  0
 13 40  1  0
 13 41  1  0
 14 42  1  0
 14 43  1  0
M  END
> <Name>
BR010502

$$$$
BR010503
  SciTegic05062102053D

 60 62  0  0  1  0            999 V2000
    6.0823   -3.0216   -3.7416 C   0  0
    5.3970   -3.0750   -2.5315 C   0  0
    1.8647   -3.3520   -6.1447 C   0  0
    5.3794   -3.0768   -4.9455 C   0  0
    4.0062   -3.1838   -2.5206 C   0  0
    3.2555   -3.2431   -6.1556 C   0  0
    1.1794   -3.4055   -4.9345 C   0  0
    3.9793   -3.1864   -4.9534 C   0  0
    3.2824   -3.2407   -3.7228 C   0  0
    1.8823   -3.3503   -3.7306 C   0  0
   -2.9489   -2.3852    0.9259 C   0  0
   -1.9601    1.2972    0.6303 C   0  0
   -0.5781   -4.9802   -0.7549 C   0  0
    2.0851    2.3919   -3.8973 C   0  0
   -1.4240   -1.4908   -0.6420 C   0  0  1  0  0  0
   -0.7391   -0.1332   -0.8004 C   0  0  1  0  0  0
   -0.4804   -2.6337   -1.0165 C   0  0  2  0  0  0
   -0.0643   -0.0218   -2.1696 C   0  0  1  0  0  0
    0.2035   -2.3731   -2.3586 C   0  0  1  0  0  0
   -3.2456   -2.4561    2.3933 C   0  0
   -3.0176    2.3592    0.6347 C   0  0
   -1.4975   -6.1567   -0.8841 C   0  0
    2.6512    2.2726   -5.2799 C   0  0
    0.7314    1.2714   -2.3175 C   0  0
   -3.6287   -2.9235    0.0626 O   0  0
   -1.4018    0.8821    1.6368 O   0  0
    0.5888   -5.0588   -0.3953 O   0  0
    2.2827    3.3451   -3.1560 O   0  0
    0.8515   -1.1032   -2.3511 O   0  0
    1.1656   -3.4063   -2.5667 O   0  0
   -1.8241   -1.6404    0.7212 O   0  0
   -1.7290    0.8812   -0.6501 O   0  0
   -1.2427   -3.8373   -1.0959 O   0  0
    1.3285    1.2888   -3.6013 O   0  0
    7.1651   -2.9368   -3.7494 H   0  0
    5.9451   -3.0320   -1.5947 H   0  0
    1.3169   -3.3950   -7.0816 H   0  0
    5.9357   -3.0334   -5.8795 H   0  0
    3.5017   -3.2232   -1.5576 H   0  0
    3.7704   -3.2030   -7.1132 H   0  0
    0.0960   -3.4903   -4.9349 H   0  0
   -2.3429   -1.5299   -1.2405 H   0  0
   -0.0062   -0.0080    0.0071 H   0  0
    0.2643   -2.7781   -0.2236 H   0  0
   -0.8146   -0.0439   -2.9711 H   0  0
   -0.5186   -2.4258   -3.1832 H   0  0
   -2.7433   -3.3218    2.8318 H   0  0
   -4.3255   -2.5163    2.5509 H   0  0
   -2.8728   -1.5517    2.8827 H   0  0
   -2.5548    3.3438    0.5316 H   0  0
   -3.5980    2.3008    1.5589 H   0  0
   -3.6935    2.2014   -0.2108 H   0  0
   -2.0182   -6.3261    0.0616 H   0  0
   -0.9275   -7.0428   -1.1746 H   0  0
   -2.2413   -5.9522   -1.6598 H   0  0
    3.6230    1.7743   -5.2410 H   0  0
    2.7441    3.2643   -5.7296 H   0  0
    1.9763    1.6727   -5.8974 H   0  0
    1.5109    1.3176   -1.5570 H   0  0
    0.0680    2.1303   -2.2170 H   0  0
  1  2  1  0
  1  4  2  0
  2  5  2  0
  3  6  1  0
  3  7  2  0
  4  8  1  0
  5  9  1  0
  6  8  2  0
  7 10  1  0
  8  9  1  0
  9 10  2  0
 10 30  1  0
 11 20  1  0
 11 25  2  0
 11 31  1  0
 12 21  1  0
 12 26  2  0
 12 32  1  0
 13 22  1  0
 13 27  2  0
 13 33  1  0
 14 23  1  0
 14 28  2  0
 14 34  1  0
 15 16  1  0
 15 17  1  0
 15 31  1  0
 16 18  1  0
 16 32  1  0
 17 19  1  0
 17 33  1  0
 18 24  1  0
 18 29  1  0
 19 29  1  0
 19 30  1  0
 24 34  1  0
  1 35  1  0
  2 36  1  0
  3 37  1  0
  4 38  1  0
  5 39  1  0
  6 40  1  0
  7 41  1  0
 15 42  1  0
 16 43  1  0
 17 44  1  0
 18 45  1  0
 19 46  1  0
 20 47  1  0
 20 48  1  0
 20 49  1  0
 21 50  1  0
 21 51  1  0
 21 52  1  0
 22 53  1  0
 22 54  1  0
 22 55  1  0
 23 56  1  0
 23 57  1  0
 23 58  1  0
 24 59  1  0
 24 60  1  0
M  END
> <Name>
BR010503

$$$$
BR010504
  SciTegic05062102053D

 60 62  0  0  1  0            999 V2000
    2.6795   -3.8723   -8.7639 C   0  0
    2.9114   -2.5674   -8.3394 C   0  0
    2.1919   -4.8226   -7.8664 C   0  0
    2.6567   -2.2078   -7.0157 C   0  0
    1.4389   -5.4218   -5.6132 C   0  0
    1.1842   -5.0622   -4.2895 C   0  0
    1.9038   -2.8070   -4.7625 C   0  0
    1.9298   -4.4783   -6.5303 C   0  0
    2.1658   -3.1513   -6.0986 C   0  0
    1.4162   -3.7573   -3.8650 C   0  0
   -2.9489   -2.3852    0.9259 C   0  0
   -1.9601    1.2972    0.6303 C   0  0
   -0.5781   -4.9802   -0.7549 C   0  0
    2.0851    2.3919   -3.8973 C   0  0
   -1.4240   -1.4908   -0.6420 C   0  0  1  0  0  0
   -0.7391   -0.1332   -0.8004 C   0  0  1  0  0  0
   -0.4804   -2.6337   -1.0165 C   0  0  2  0  0  0
   -0.0643   -0.0218   -2.1696 C   0  0  1  0  0  0
    0.2035   -2.3731   -2.3586 C   0  0  1  0  0  0
   -3.2456   -2.4561    2.3933 C   0  0
   -3.0176    2.3592    0.6347 C   0  0
   -1.4975   -6.1567   -0.8841 C   0  0
    2.6512    2.2726   -5.2799 C   0  0
    0.7314    1.2714   -2.3175 C   0  0
   -3.6287   -2.9235    0.0626 O   0  0
   -1.4018    0.8821    1.6368 O   0  0
    0.5888   -5.0588   -0.3953 O   0  0
    2.2827    3.3451   -3.1560 O   0  0
    0.8515   -1.1032   -2.3511 O   0  0
    1.1656   -3.4063   -2.5667 O   0  0
   -1.8241   -1.6404    0.7212 O   0  0
   -1.7290    0.8812   -0.6501 O   0  0
   -1.2427   -3.8373   -1.0959 O   0  0
    1.3285    1.2888   -3.6013 O   0  0
    2.8786   -4.1516   -9.7944 H   0  0
    3.2908   -1.8276   -9.0385 H   0  0
    2.0181   -5.8370   -8.2192 H   0  0
    2.8461   -1.1820   -6.7059 H   0  0
    1.2509   -6.4479   -5.9230 H   0  0
    0.8050   -5.8066   -3.5946 H   0  0
    2.0796   -1.7906   -4.4145 H   0  0
   -2.3429   -1.5299   -1.2405 H   0  0
   -0.0062   -0.0080    0.0071 H   0  0
    0.2643   -2.7781   -0.2236 H   0  0
   -0.8146   -0.0439   -2.9711 H   0  0
   -0.5186   -2.4258   -3.1832 H   0  0
   -2.7433   -3.3218    2.8318 H   0  0
   -4.3255   -2.5163    2.5509 H   0  0
   -2.8728   -1.5517    2.8827 H   0  0
   -2.5548    3.3438    0.5316 H   0  0
   -3.5980    2.3008    1.5589 H   0  0
   -3.6935    2.2014   -0.2108 H   0  0
   -2.0182   -6.3261    0.0616 H   0  0
   -0.9275   -7.0428   -1.1746 H   0  0
   -2.2413   -5.9522   -1.6598 H   0  0
    3.6230    1.7743   -5.2410 H   0  0
    2.7441    3.2643   -5.7296 H   0  0
    1.9763    1.6727   -5.8974 H   0  0
    1.5109    1.3176   -1.5570 H   0  0
    0.0680    2.1303   -2.2170 H   0  0
  1  2  1  0
  1  3  2  0
  2  4  2  0
  3  8  1  0
  4  9  1  0
  5  6  1  0
  5  8  2  0
  6 10  2  0
  7  9  2  0
  7 10  1  0
  8  9  1  0
 10 30  1  0
 11 20  1  0
 11 25  2  0
 11 31  1  0
 12 21  1  0
 12 26  2  0
 12 32  1  0
 13 22  1  0
 13 27  2  0
 13 33  1  0
 14 23  1  0
 14 28  2  0
 14 34  1  0
 15 16  1  0
 15 17  1  0
 15 31  1  0
 16 18  1  0
 16 32  1  0
 17 19  1  0
 17 33  1  0
 18 24  1  0
 18 29  1  0
 19 29  1  0
 19 30  1  0
 24 34  1  0
  1 35  1  0
  2 36  1  0
  3 37  1  0
  4 38  1  0
  5 39  1  0
  6 40  1  0
  7 41  1  0
 15 42  1  0
 16 43  1  0
 17 44  1  0
 18 45  1  0
 19 46  1  0
 20 47  1  0
 20 48  1  0
 20 49  1  0
 21 50  1  0
 21 51  1  0
 21 52  1  0
 22 53  1  0
 22 54  1  0
 22 55  1  0
 23 56  1  0
 23 57  1  0
 23 58  1  0
 24 59  1  0
 24 60  1  0
M  END
> <Name>
BR010504

$$$$
BR010505
  SciTegic05062102053D

 56 57  0  0  1  0            999 V2000
    2.1592   -3.1660   -6.0865 C   0  0
    1.4387   -5.4233   -5.6146 C   0  0
    1.9040   -2.8078   -4.7628 C   0  0
    1.1835   -5.0651   -4.2909 C   0  0
    1.9265   -4.4737   -6.5124 C   0  0
    1.4162   -3.7573   -3.8650 C   0  0
    2.1927   -4.8474   -7.8924 C   0  0
   -2.9489   -2.3852    0.9259 C   0  0
   -1.9601    1.2972    0.6303 C   0  0
   -0.5781   -4.9802   -0.7549 C   0  0
    2.0851    2.3919   -3.8973 C   0  0
   -1.4240   -1.4908   -0.6420 C   0  0  1  0  0  0
   -0.7391   -0.1332   -0.8004 C   0  0  1  0  0  0
   -0.4804   -2.6337   -1.0165 C   0  0  2  0  0  0
   -0.0643   -0.0218   -2.1696 C   0  0  1  0  0  0
    0.2035   -2.3731   -2.3586 C   0  0  1  0  0  0
   -3.2456   -2.4561    2.3933 C   0  0
   -3.0176    2.3592    0.6347 C   0  0
   -1.4975   -6.1567   -0.8841 C   0  0
    2.6512    2.2726   -5.2799 C   0  0
    0.7314    1.2714   -2.3175 C   0  0
    2.0080   -5.9866   -8.3297 O   0  0
   -3.6287   -2.9235    0.0626 O   0  0
   -1.4018    0.8821    1.6368 O   0  0
    0.5888   -5.0588   -0.3953 O   0  0
    2.2827    3.3451   -3.1560 O   0  0
    0.8515   -1.1032   -2.3511 O   0  0
    1.1656   -3.4063   -2.5667 O   0  0
   -1.8241   -1.6404    0.7212 O   0  0
   -1.7290    0.8812   -0.6501 O   0  0
   -1.2427   -3.8373   -1.0959 O   0  0
    1.3285    1.2888   -3.6013 O   0  0
    2.5395   -2.4176   -6.7770 H   0  0
    1.2543   -6.4450   -5.9365 H   0  0
    2.0871   -1.7875   -4.4371 H   0  0
    0.8033   -5.8090   -3.5961 H   0  0
    2.5808   -4.0566   -8.5708 H   0  0
   -2.3429   -1.5299   -1.2405 H   0  0
   -0.0062   -0.0080    0.0071 H   0  0
    0.2643   -2.7781   -0.2236 H   0  0
   -0.8146   -0.0439   -2.9711 H   0  0
   -0.5186   -2.4258   -3.1832 H   0  0
   -2.7433   -3.3218    2.8318 H   0  0
   -4.3255   -2.5163    2.5509 H   0  0
   -2.8728   -1.5517    2.8827 H   0  0
   -2.5548    3.3438    0.5316 H   0  0
   -3.5980    2.3008    1.5589 H   0  0
   -3.6935    2.2014   -0.2108 H   0  0
   -2.0182   -6.3261    0.0616 H   0  0
   -0.9275   -7.0428   -1.1746 H   0  0
   -2.2413   -5.9522   -1.6598 H   0  0
    3.6230    1.7743   -5.2410 H   0  0
    2.7441    3.2643   -5.7296 H   0  0
    1.9763    1.6727   -5.8974 H   0  0
    1.5109    1.3176   -1.5570 H   0  0
    0.0680    2.1303   -2.2170 H   0  0
  1  3  1  0
  1  5  2  0
  2  4  2  0
  2  5  1  0
  3  6  2  0
  4  6  1  0
  5  7  1  0
  6 28  1  0
  7 22  2  0
  8 17  1  0
  8 23  2  0
  8 29  1  0
  9 18  1  0
  9 24  2  0
  9 30  1  0
 10 19  1  0
 10 25  2  0
 10 31  1  0
 11 20  1  0
 11 26  2  0
 11 32  1  0
 12 13  1  0
 12 14  1  0
 12 29  1  0
 13 15  1  0
 13 30  1  0
 14 16  1  0
 14 31  1  0
 15 21  1  0
 15 27  1  0
 16 27  1  0
 16 28  1  0
 21 32  1  0
  1 33  1  0
  2 34  1  0
  3 35  1  0
  4 36  1  0
  7 37  1  0
 12 38  1  0
 13 39  1  0
 14 40  1  0
 15 41  1  0
 16 42  1  0
 17 43  1  0
 17 44  1  0
 17 45  1  0
 18 46  1  0
 18 47  1  0
 18 48  1  0
 19 49  1  0
 19 50  1  0
 19 51  1  0
 20 52  1  0
 20 53  1  0
 20 54  1  0
 21 55  1  0
 21 56  1  0
M  END
> <Name>
BR010505

$$$$
BR010506
  SciTegic05062102053D

 60 61  0  0  1  0            999 V2000
    2.1633   -3.1433   -6.0789 C   0  0
    1.9038   -2.7982   -4.7526 C   0  0
    1.4474   -5.4067   -5.6300 C   0  0
    1.9351   -4.4476   -6.5177 C   0  0
    1.4162   -3.7573   -3.8650 C   0  0
    1.1880   -5.0616   -4.3037 C   0  0
    2.2037   -4.8068   -7.9011 C   0  0
   -2.9489   -2.3852    0.9259 C   0  0
   -1.9601    1.2972    0.6303 C   0  0
   -0.5781   -4.9802   -0.7549 C   0  0
    2.0851    2.3919   -3.8973 C   0  0
   -1.4240   -1.4908   -0.6420 C   0  0  1  0  0  0
   -0.7391   -0.1332   -0.8004 C   0  0  1  0  0  0
   -0.4804   -2.6337   -1.0165 C   0  0  2  0  0  0
   -0.0643   -0.0218   -2.1696 C   0  0  1  0  0  0
    0.2035   -2.3731   -2.3586 C   0  0  1  0  0  0
   -3.2456   -2.4561    2.3933 C   0  0
   -3.0176    2.3592    0.6347 C   0  0
   -1.4975   -6.1567   -0.8841 C   0  0
    2.6512    2.2726   -5.2799 C   0  0
    0.5041   -7.3156   -3.9754 C   0  0
    0.7314    1.2714   -2.3175 C   0  0
    2.0230   -5.9422   -8.3498 O   0  0
   -3.6287   -2.9235    0.0626 O   0  0
   -1.4018    0.8821    1.6368 O   0  0
    0.5888   -5.0588   -0.3953 O   0  0
    2.2827    3.3451   -3.1560 O   0  0
    0.8515   -1.1032   -2.3511 O   0  0
    1.1656   -3.4063   -2.5667 O   0  0
    0.7096   -6.0068   -3.4472 O   0  0
   -1.8241   -1.6404    0.7212 O   0  0
   -1.7290    0.8812   -0.6501 O   0  0
   -1.2427   -3.8373   -1.0959 O   0  0
    1.3285    1.2888   -3.6013 O   0  0
    2.5430   -2.3877   -6.7618 H   0  0
    2.0840   -1.7806   -4.4169 H   0  0
    1.2661   -6.4240   -5.9695 H   0  0
    2.5899   -4.0081   -8.5712 H   0  0
   -2.3429   -1.5299   -1.2405 H   0  0
   -0.0062   -0.0080    0.0071 H   0  0
    0.2643   -2.7781   -0.2236 H   0  0
   -0.8146   -0.0439   -2.9711 H   0  0
   -0.5186   -2.4258   -3.1832 H   0  0
   -2.7433   -3.3218    2.8318 H   0  0
   -4.3255   -2.5163    2.5509 H   0  0
   -2.8728   -1.5517    2.8827 H   0  0
   -2.5548    3.3438    0.5316 H   0  0
   -3.5980    2.3008    1.5589 H   0  0
   -3.6935    2.2014   -0.2108 H   0  0
   -2.0182   -6.3261    0.0616 H   0  0
   -0.9275   -7.0428   -1.1746 H   0  0
   -2.2413   -5.9522   -1.6598 H   0  0
    3.6230    1.7743   -5.2410 H   0  0
    2.7441    3.2643   -5.7296 H   0  0
    1.9763    1.6727   -5.8974 H   0  0
    0.1212   -7.9707   -3.1891 H   0  0
    1.4490   -7.7061   -4.3618 H   0  0
   -0.2245   -7.2607   -4.7877 H   0  0
    1.5109    1.3176   -1.5570 H   0  0
    0.0680    2.1303   -2.2170 H   0  0
  1  2  2  0
  1  4  1  0
  2  5  1  0
  3  4  2  0
  3  6  1  0
  4  7  1  0
  5  6  2  0
  5 29  1  0
  6 30  1  0
  7 23  2  0
  8 17  1  0
  8 24  2  0
  8 31  1  0
  9 18  1  0
  9 25  2  0
  9 32  1  0
 10 19  1  0
 10 26  2  0
 10 33  1  0
 11 20  1  0
 11 27  2  0
 11 34  1  0
 12 13  1  0
 12 14  1  0
 12 31  1  0
 13 15  1  0
 13 32  1  0
 14 16  1  0
 14 33  1  0
 15 22  1  0
 15 28  1  0
 16 28  1  0
 16 29  1  0
 21 30  1  0
 22 34  1  0
  1 35  1  0
  2 36  1  0
  3 37  1  0
  7 38  1  0
 12 39  1  0
 13 40  1  0
 14 41  1  0
 15 42  1  0
 16 43  1  0
 17 44  1  0
 17 45  1  0
 17 46  1  0
 18 47  1  0
 18 48  1  0
 18 49  1  0
 19 50  1  0
 19 51  1  0
 19 52  1  0
 20 53  1  0
 20 54  1  0
 20 55  1  0
 21 56  1  0
 21 57  1  0
 21 58  1  0
 22 59  1  0
 22 60  1  0
M  END
> <Name>
BR010506

$$$$
BR010507
  SciTegic05062102053D

 58 59  0  0  1  0            999 V2000
    1.9040   -2.8078   -4.7628 C   0  0
    1.1853   -5.0655   -4.2904 C   0  0
    2.1609   -3.1664   -6.0860 C   0  0
    1.4422   -5.4241   -5.6137 C   0  0
    1.4162   -3.7573   -3.8650 C   0  0
    1.9300   -4.4746   -6.5115 C   0  0
   -2.9489   -2.3852    0.9259 C   0  0
   -1.9601    1.2972    0.6303 C   0  0
   -0.5781   -4.9802   -0.7549 C   0  0
    2.0851    2.3919   -3.8973 C   0  0
   -1.4240   -1.4908   -0.6420 C   0  0  1  0  0  0
   -0.7391   -0.1332   -0.8004 C   0  0  1  0  0  0
   -0.4804   -2.6337   -1.0165 C   0  0  2  0  0  0
   -0.0643   -0.0218   -2.1696 C   0  0  1  0  0  0
    0.2035   -2.3731   -2.3586 C   0  0  1  0  0  0
   -3.2456   -2.4561    2.3933 C   0  0
   -3.0176    2.3592    0.6347 C   0  0
   -1.4975   -6.1567   -0.8841 C   0  0
    2.6512    2.2726   -5.2799 C   0  0
    2.6788   -3.8042   -8.6669 C   0  0
    0.7314    1.2714   -2.3175 C   0  0
   -3.6287   -2.9235    0.0626 O   0  0
   -1.4018    0.8821    1.6368 O   0  0
    0.5888   -5.0588   -0.3953 O   0  0
    2.2827    3.3451   -3.1560 O   0  0
    0.8515   -1.1032   -2.3511 O   0  0
    1.1656   -3.4063   -2.5667 O   0  0
    2.1810   -4.8245   -7.8027 O   0  0
   -1.8241   -1.6404    0.7212 O   0  0
   -1.7290    0.8812   -0.6501 O   0  0
   -1.2427   -3.8373   -1.0959 O   0  0
    1.3285    1.2888   -3.6013 O   0  0
    2.0881   -1.7878   -4.4366 H   0  0
    0.8061   -5.8095   -3.5951 H   0  0
    2.5396   -2.4222   -6.7813 H   0  0
    1.2607   -6.4447   -5.9394 H   0  0
   -2.3429   -1.5299   -1.2405 H   0  0
   -0.0062   -0.0080    0.0071 H   0  0
    0.2643   -2.7781   -0.2236 H   0  0
   -0.8146   -0.0439   -2.9711 H   0  0
   -0.5186   -2.4258   -3.1832 H   0  0
   -2.7433   -3.3218    2.8318 H   0  0
   -4.3255   -2.5163    2.5509 H   0  0
   -2.8728   -1.5517    2.8827 H   0  0
   -2.5548    3.3438    0.5316 H   0  0
   -3.5980    2.3008    1.5589 H   0  0
   -3.6935    2.2014   -0.2108 H   0  0
   -2.0182   -6.3261    0.0616 H   0  0
   -0.9275   -7.0428   -1.1746 H   0  0
   -2.2413   -5.9522   -1.6598 H   0  0
    3.6230    1.7743   -5.2410 H   0  0
    2.7441    3.2643   -5.7296 H   0  0
    1.9763    1.6727   -5.8974 H   0  0
    2.8357   -4.2169   -9.6665 H   0  0
    3.6199   -3.4160   -8.2695 H   0  0
    1.9466   -2.9950   -8.7202 H   0  0
    1.5109    1.3176   -1.5570 H   0  0
    0.0680    2.1303   -2.2170 H   0  0
  1  3  1  0
  1  5  2  0
  2  4  2  0
  2  5  1  0
  3  6  2  0
  4  6  1  0
  5 27  1  0
  6 28  1  0
  7 16  1  0
  7 22  2  0
  7 29  1  0
  8 17  1  0
  8 23  2  0
  8 30  1  0
  9 18  1  0
  9 24  2  0
  9 31  1  0
 10 19  1  0
 10 25  2  0
 10 32  1  0
 11 12  1  0
 11 13  1  0
 11 29  1  0
 12 14  1  0
 12 30  1  0
 13 15  1  0
 13 31  1  0
 14 21  1  0
 14 26  1  0
 15 26  1  0
 15 27  1  0
 20 28  1  0
 21 32  1  0
  1 33  1  0
  2 34  1  0
  3 35  1  0
  4 36  1  0
 11 37  1  0
 12 38  1  0
 13 39  1  0
 14 40  1  0
 15 41  1  0
 16 42  1  0
 16 43  1  0
 16 44  1  0
 17 45  1  0
 17 46  1  0
 17 47  1  0
 18 48  1  0
 18 49  1  0
 18 50  1  0
 19 51  1  0
 19 52  1  0
 19 53  1  0
 20 54  1  0
 20 55  1  0
 20 56  1  0
 21 57  1  0
 21 58  1  0
M  END
> <Name>
BR010507

$$$$
BR010508
  SciTegic05062102053D

 59 61  0  0  1  0            999 V2000
    5.5654   -5.6806    5.1840 C   0  0
    4.8291   -6.8285    4.8917 C   0  0
    5.5297   -4.5892    4.3160 C   0  0
    4.0571   -6.8853    3.7313 C   0  0
    4.7578   -4.6459    3.1557 C   0  0
    4.0214   -5.7940    2.8633 C   0  0
    3.2270   -5.8521    1.6709 C   0  0
    2.4236   -5.1207   -0.1278 C   0  0
    2.3135    1.6372   -2.6881 C   0  0
    0.4907    2.3058    0.6034 C   0  0
    2.4588   -1.4435   -3.9748 C   0  0
    0.1623   -2.6487    4.2681 C   0  0
    1.9209    0.0443   -0.9874 C   0  0  1  0  0  0
    1.0612    0.0360    0.2772 C   0  0  1  0  0  0
    1.9118   -1.3226   -1.6792 C   0  0  2  0  0  0
    1.4198   -1.1584    1.1651 C   0  0  1  0  0  0
    2.1983   -2.4446   -0.6761 C   0  0  1  0  0  0
    1.6245    2.6357   -3.5680 C   0  0
    0.8372    3.5171    1.4149 C   0  0
    3.6135   -1.3961   -4.9291 C   0  0
    0.6863   -3.8684    4.9637 C   0  0
    0.5011   -1.2720    2.3777 C   0  0
    2.4653   -6.8121    1.2008 N   0  0
    1.9368   -6.3309    0.0174 N   0  0
    3.5176    1.4212   -2.7091 O   0  0
   -0.3795    2.2831   -0.2565 O   0  0
    1.2933   -1.5918   -4.3163 O   0  0
   -0.7827   -1.9836    4.6701 O   0  0
    3.2533   -4.7426    0.8828 O   0  0
    1.2939   -2.3738    0.4259 O   0  0
    1.3966    1.0267   -1.8831 O   0  0
    1.2863    1.2588    0.9736 O   0  0
    2.9129   -1.2968   -2.6956 O   0  0
    0.8925   -2.4023    3.1353 O   0  0
    2.0477   -4.0723   -1.4960 S   0  0
    6.1660   -5.6362    6.0879 H   0  0
    4.8572   -7.6783    5.5676 H   0  0
    6.1023   -3.6948    4.5442 H   0  0
    3.4866   -7.7863    3.5188 H   0  0
    4.7413   -3.7873    2.4887 H   0  0
    2.9461    0.3565   -0.7518 H   0  0
    0.0027    0.0046   -0.0114 H   0  0
    0.9384   -1.4623   -2.1675 H   0  0
    2.4491   -1.0658    1.5362 H   0  0
    3.2289   -2.3827   -0.3066 H   0  0
    1.3112    2.1562   -4.4987 H   0  0
    2.2948    3.4743   -3.7731 H   0  0
    0.7362    3.0178   -3.0565 H   0  0
    0.2307    3.5407    2.3236 H   0  0
    0.6765    4.4202    0.8206 H   0  0
    1.8922    3.4724    1.7009 H   0  0
    3.7925   -0.3651   -5.2438 H   0  0
    3.4069   -2.0327   -5.7932 H   0  0
    4.5123   -1.7692   -4.4295 H   0  0
    0.1712   -4.7575    4.5919 H   0  0
    0.5500   -3.7670    6.0433 H   0  0
    1.7554   -3.9727    4.7567 H   0  0
   -0.5315   -1.3967    2.0517 H   0  0
    0.5867   -0.3774    2.9946 H   0  0
  1  2  2  0
  1  3  1  0
  2  4  1  0
  3  5  2  0
  4  6  2  0
  5  6  1  0
  6  7  1  0
  7 23  2  0
  7 29  1  0
  8 24  2  0
  8 29  1  0
  8 35  1  0
  9 18  1  0
  9 25  2  0
  9 31  1  0
 10 19  1  0
 10 26  2  0
 10 32  1  0
 11 20  1  0
 11 27  2  0
 11 33  1  0
 12 21  1  0
 12 28  2  0
 12 34  1  0
 13 14  1  0
 13 15  1  0
 13 31  1  0
 14 16  1  0
 14 32  1  0
 15 17  1  0
 15 33  1  0
 16 22  1  0
 16 30  1  0
 17 30  1  0
 17 35  1  0
 22 34  1  0
 23 24  1  0
  1 36  1  0
  2 37  1  0
  3 38  1  0
  4 39  1  0
  5 40  1  0
 13 41  1  0
 14 42  1  0
 15 43  1  0
 16 44  1  0
 17 45  1  0
 18 46  1  0
 18 47  1  0
 18 48  1  0
 19 49  1  0
 19 50  1  0
 19 51  1  0
 20 52  1  0
 20 53  1  0
 20 54  1  0
 21 55  1  0
 21 56  1  0
 21 57  1  0
 22 58  1  0
 22 59  1  0
M  END
> <Name>
BR010508

$$$$
BR010509
  SciTegic05062102053D

 62 64  0  0  1  0            999 V2000
    4.0572   -6.8852    3.7314 C   0  0
    4.7584   -4.6462    3.1550 C   0  0
    4.8300   -6.8287    4.8912 C   0  0
    5.5312   -4.5896    4.3149 C   0  0
    4.0214   -5.7940    2.8633 C   0  0
    5.5670   -5.6809    5.1830 C   0  0
    3.2270   -5.8521    1.6709 C   0  0
    2.4236   -5.1207   -0.1278 C   0  0
    2.3135    1.6372   -2.6881 C   0  0
    0.4907    2.3058    0.6034 C   0  0
    2.4588   -1.4435   -3.9748 C   0  0
    0.1623   -2.6487    4.2681 C   0  0
    1.9209    0.0443   -0.9874 C   0  0  1  0  0  0
    1.0612    0.0360    0.2772 C   0  0  1  0  0  0
    1.9118   -1.3226   -1.6792 C   0  0  2  0  0  0
    1.4198   -1.1584    1.1651 C   0  0  1  0  0  0
    2.1983   -2.4446   -0.6761 C   0  0  1  0  0  0
    6.3936   -5.6207    6.4227 C   0  0
    1.6245    2.6357   -3.5680 C   0  0
    0.8372    3.5171    1.4149 C   0  0
    3.6135   -1.3961   -4.9291 C   0  0
    0.6863   -3.8684    4.9637 C   0  0
    0.5011   -1.2720    2.3777 C   0  0
    2.4653   -6.8121    1.2008 N   0  0
    1.9368   -6.3309    0.0174 N   0  0
    3.5176    1.4212   -2.7091 O   0  0
   -0.3795    2.2831   -0.2565 O   0  0
    1.2933   -1.5918   -4.3163 O   0  0
   -0.7827   -1.9836    4.6701 O   0  0
    3.2533   -4.7426    0.8828 O   0  0
    1.2939   -2.3738    0.4259 O   0  0
    1.3966    1.0267   -1.8831 O   0  0
    1.2863    1.2588    0.9736 O   0  0
    2.9129   -1.2968   -2.6956 O   0  0
    0.8925   -2.4023    3.1353 O   0  0
    2.0477   -4.0723   -1.4960 S   0  0
    3.4885   -7.7871    3.5178 H   0  0
    4.7405   -3.7872    2.4884 H   0  0
    4.8524   -7.6836    5.5617 H   0  0
    6.1021   -3.6911    4.5339 H   0  0
    2.9461    0.3565   -0.7518 H   0  0
    0.0027    0.0046   -0.0114 H   0  0
    0.9384   -1.4623   -2.1675 H   0  0
    2.4491   -1.0658    1.5362 H   0  0
    3.2289   -2.3827   -0.3066 H   0  0
    7.4075   -5.9891    6.2242 H   0  0
    6.4652   -4.5940    6.8046 H   0  0
    5.9537   -6.2277    7.2248 H   0  0
    1.3112    2.1562   -4.4987 H   0  0
    2.2948    3.4743   -3.7731 H   0  0
    0.7362    3.0178   -3.0565 H   0  0
    0.2307    3.5407    2.3236 H   0  0
    0.6765    4.4202    0.8206 H   0  0
    1.8922    3.4724    1.7009 H   0  0
    3.7925   -0.3651   -5.2438 H   0  0
    3.4069   -2.0327   -5.7932 H   0  0
    4.5123   -1.7692   -4.4295 H   0  0
    0.1712   -4.7575    4.5919 H   0  0
    0.5500   -3.7670    6.0433 H   0  0
    1.7554   -3.9727    4.7567 H   0  0
   -0.5315   -1.3967    2.0517 H   0  0
    0.5867   -0.3774    2.9946 H   0  0
  1  3  2  0
  1  5  1  0
  2  4  1  0
  2  5  2  0
  3  6  1  0
  4  6  2  0
  5  7  1  0
  6 18  1  0
  7 24  2  0
  7 30  1  0
  8 25  2  0
  8 30  1  0
  8 36  1  0
  9 19  1  0
  9 26  2  0
  9 32  1  0
 10 20  1  0
 10 27  2  0
 10 33  1  0
 11 21  1  0
 11 28  2  0
 11 34  1  0
 12 22  1  0
 12 29  2  0
 12 35  1  0
 13 14  1  0
 13 15  1  0
 13 32  1  0
 14 16  1  0
 14 33  1  0
 15 17  1  0
 15 34  1  0
 16 23  1  0
 16 31  1  0
 17 31  1  0
 17 36  1  0
 23 35  1  0
 24 25  1  0
  1 37  1  0
  2 38  1  0
  3 39  1  0
  4 40  1  0
 13 41  1  0
 14 42  1  0
 15 43  1  0
 16 44  1  0
 17 45  1  0
 18 46  1  0
 18 47  1  0
 18 48  1  0
 19 49  1  0
 19 50  1  0
 19 51  1  0
 20 52  1  0
 20 53  1  0
 20 54  1  0
 21 55  1  0
 21 56  1  0
 21 57  1  0
 22 58  1  0
 22 59  1  0
 22 60  1  0
 23 61  1  0
 23 62  1  0
M  END
> <Name>
BR010509

$$$$
BR010510
  SciTegic05062102053D

 59 61  0  0  1  0            999 V2000
    4.0579   -6.8847    3.7321 C   0  0
    4.7579   -4.6457    3.1542 C   0  0
    4.8309   -6.8271    4.8917 C   0  0
    5.5310   -4.5881    4.3138 C   0  0
    4.0214   -5.7940    2.8633 C   0  0
    5.5675   -5.6788    5.1826 C   0  0
    3.2270   -5.8521    1.6709 C   0  0
    2.4236   -5.1207   -0.1278 C   0  0
    2.3135    1.6372   -2.6881 C   0  0
    0.4907    2.3058    0.6034 C   0  0
    2.4588   -1.4435   -3.9748 C   0  0
    0.1623   -2.6487    4.2681 C   0  0
    1.9209    0.0443   -0.9874 C   0  0  1  0  0  0
    1.0612    0.0360    0.2772 C   0  0  1  0  0  0
    1.9118   -1.3226   -1.6792 C   0  0  2  0  0  0
    1.4198   -1.1584    1.1651 C   0  0  1  0  0  0
    2.1983   -2.4446   -0.6761 C   0  0  1  0  0  0
    1.6245    2.6357   -3.5680 C   0  0
    0.8372    3.5171    1.4149 C   0  0
    3.6135   -1.3961   -4.9291 C   0  0
    0.6863   -3.8684    4.9637 C   0  0
    0.5011   -1.2720    2.3777 C   0  0
    2.4653   -6.8121    1.2008 N   0  0
    1.9368   -6.3309    0.0174 N   0  0
    3.5176    1.4212   -2.7091 O   0  0
   -0.3795    2.2831   -0.2565 O   0  0
    1.2933   -1.5918   -4.3163 O   0  0
   -0.7827   -1.9836    4.6701 O   0  0
    3.2533   -4.7426    0.8828 O   0  0
    1.2939   -2.3738    0.4259 O   0  0
    1.3966    1.0267   -1.8831 O   0  0
    1.2863    1.2588    0.9736 O   0  0
    2.9129   -1.2968   -2.6956 O   0  0
    0.8925   -2.4023    3.1353 O   0  0
    2.0477   -4.0723   -1.4960 S   0  0
    6.5196   -5.6065    6.6143 Cl  0  0
    3.4892   -7.7866    3.5191 H   0  0
    4.7395   -3.7871    2.4868 H   0  0
    4.8502   -7.6849    5.5594 H   0  0
    6.1003   -3.6872    4.5275 H   0  0
    2.9461    0.3565   -0.7518 H   0  0
    0.0027    0.0046   -0.0114 H   0  0
    0.9384   -1.4623   -2.1675 H   0  0
    2.4491   -1.0658    1.5362 H   0  0
    3.2289   -2.3827   -0.3066 H   0  0
    1.3112    2.1562   -4.4987 H   0  0
    2.2948    3.4743   -3.7731 H   0  0
    0.7362    3.0178   -3.0565 H   0  0
    0.2307    3.5407    2.3236 H   0  0
    0.6765    4.4202    0.8206 H   0  0
    1.8922    3.4724    1.7009 H   0  0
    3.7925   -0.3651   -5.2438 H   0  0
    3.4069   -2.0327   -5.7932 H   0  0
    4.5123   -1.7692   -4.4295 H   0  0
    0.1712   -4.7575    4.5919 H   0  0
    0.5500   -3.7670    6.0433 H   0  0
    1.7554   -3.9727    4.7567 H   0  0
   -0.5315   -1.3967    2.0517 H   0  0
    0.5867   -0.3774    2.9946 H   0  0
  1  3  2  0
  1  5  1  0
  2  4  1  0
  2  5  2  0
  3  6  1  0
  4  6  2  0
  5  7  1  0
  6 36  1  0
  7 23  2  0
  7 29  1  0
  8 24  2  0
  8 29  1  0
  8 35  1  0
  9 18  1  0
  9 25  2  0
  9 31  1  0
 10 19  1  0
 10 26  2  0
 10 32  1  0
 11 20  1  0
 11 27  2  0
 11 33  1  0
 12 21  1  0
 12 28  2  0
 12 34  1  0
 13 14  1  0
 13 15  1  0
 13 31  1  0
 14 16  1  0
 14 32  1  0
 15 17  1  0
 15 33  1  0
 16 22  1  0
 16 30  1  0
 17 30  1  0
 17 35  1  0
 22 34  1  0
 23 24  1  0
  1 37  1  0
  2 38  1  0
  3 39  1  0
  4 40  1  0
 13 41  1  0
 14 42  1  0
 15 43  1  0
 16 44  1  0
 17 45  1  0
 18 46  1  0
 18 47  1  0
 18 48  1  0
 19 49  1  0
 19 50  1  0
 19 51  1  0
 20 52  1  0
 20 53  1  0
 20 54  1  0
 21 55  1  0
 21 56  1  0
 21 57  1  0
 22 58  1  0
 22 59  1  0
M  END
> <Name>
BR010510

$$$$
BR010511
  SciTegic05062102053D

 40 42  0  0  1  0            999 V2000
    6.0823   -3.0216   -3.7416 C   0  0
    5.3970   -3.0750   -2.5315 C   0  0
    1.8647   -3.3520   -6.1447 C   0  0
    5.3794   -3.0768   -4.9455 C   0  0
    4.0062   -3.1838   -2.5206 C   0  0
    3.2555   -3.2431   -6.1556 C   0  0
    1.1794   -3.4055   -4.9345 C   0  0
    3.9793   -3.1864   -4.9534 C   0  0
    3.2824   -3.2407   -3.7228 C   0  0
    1.8823   -3.3503   -3.7306 C   0  0
   -1.4240   -1.4908   -0.6420 C   0  0  1  0  0  0
   -0.7391   -0.1332   -0.8004 C   0  0  1  0  0  0
   -0.4804   -2.6337   -1.0165 C   0  0  2  0  0  0
   -0.0643   -0.0218   -2.1696 C   0  0  1  0  0  0
    0.2035   -2.3731   -2.3586 C   0  0  1  0  0  0
    0.7314    1.2714   -2.3175 C   0  0
    0.8515   -1.1032   -2.3511 O   0  0
   -1.8241   -1.6404    0.7212 O   0  0
   -1.7290    0.8812   -0.6501 O   0  0
   -1.2427   -3.8373   -1.0959 O   0  0
    1.3285    1.2888   -3.6013 O   0  0
    1.1656   -3.4063   -2.5667 O   0  0
    7.1651   -2.9368   -3.7494 H   0  0
    5.9451   -3.0320   -1.5947 H   0  0
    1.3169   -3.3950   -7.0816 H   0  0
    5.9357   -3.0334   -5.8795 H   0  0
    3.5017   -3.2232   -1.5576 H   0  0
    3.7704   -3.2030   -7.1132 H   0  0
    0.0960   -3.4903   -4.9349 H   0  0
   -2.3429   -1.5299   -1.2405 H   0  0
   -0.0062   -0.0080    0.0071 H   0  0
    0.2643   -2.7781   -0.2236 H   0  0
   -0.8146   -0.0439   -2.9711 H   0  0
   -0.5186   -2.4258   -3.1832 H   0  0
    1.5109    1.3176   -1.5570 H   0  0
    0.0680    2.1303   -2.2170 H   0  0
   -1.0143   -1.5883    1.2504 H   0  0
   -2.3867    0.7305   -1.3466 H   0  0
   -1.9138   -3.6926   -1.7801 H   0  0
    1.8288    2.1196   -3.6722 H   0  0
  1  2  1  0
  1  4  2  0
  2  5  2  0
  3  6  1  0
  3  7  2  0
  4  8  1  0
  5  9  1  0
  6  8  2  0
  7 10  1  0
  8  9  1  0
  9 10  2  0
 10 22  1  0
 11 12  1  0
 11 13  1  0
 11 18  1  0
 12 14  1  0
 12 19  1  0
 13 15  1  0
 13 20  1  0
 14 16  1  0
 14 17  1  0
 15 17  1  0
 15 22  1  0
 16 21  1  0
  1 23  1  0
  2 24  1  0
  3 25  1  0
  4 26  1  0
  5 27  1  0
  6 28  1  0
  7 29  1  0
 11 30  1  0
 12 31  1  0
 13 32  1  0
 14 33  1  0
 15 34  1  0
 16 35  1  0
 16 36  1  0
 18 37  1  0
 19 38  1  0
 20 39  1  0
 21 40  1  0
M  END
> <Name>
BR010511

$$$$
BR010512
  SciTegic05062102053D

 40 42  0  0  1  0            999 V2000
    5.4936   -3.0669   -7.2644 C   0  0
    6.1519   -3.0152   -6.0394 C   0  0
    4.1033   -3.1760   -7.3062 C   0  0
    5.4226   -3.0723   -4.8514 C   0  0
    1.9533   -3.3448   -6.1436 C   0  0
    1.2239   -3.4020   -4.9557 C   0  0
    3.2726   -3.2412   -3.6888 C   0  0
    3.3532   -3.2349   -6.1204 C   0  0
    4.0227   -3.1823   -4.8746 C   0  0
    1.8823   -3.3503   -3.7306 C   0  0
   -1.4240   -1.4908   -0.6420 C   0  0  1  0  0  0
   -0.7391   -0.1332   -0.8004 C   0  0  1  0  0  0
   -0.4804   -2.6337   -1.0165 C   0  0  2  0  0  0
   -0.0643   -0.0218   -2.1696 C   0  0  1  0  0  0
    0.2035   -2.3731   -2.3586 C   0  0  1  0  0  0
    0.7314    1.2714   -2.3175 C   0  0
    0.8515   -1.1032   -2.3511 O   0  0
   -1.8241   -1.6404    0.7212 O   0  0
   -1.7290    0.8812   -0.6501 O   0  0
   -1.2427   -3.8373   -1.0959 O   0  0
    1.3285    1.2888   -3.6013 O   0  0
    1.1656   -3.4063   -2.5667 O   0  0
    6.0621   -3.0230   -8.1887 H   0  0
    7.2343   -2.9299   -6.0071 H   0  0
    3.6089   -3.2154   -8.2746 H   0  0
    5.9584   -3.0309   -3.9053 H   0  0
    1.4177   -3.3875   -7.0900 H   0  0
    0.1413   -3.4876   -4.9942 H   0  0
    3.7721   -3.2017   -2.7224 H   0  0
   -2.3429   -1.5299   -1.2405 H   0  0
   -0.0062   -0.0080    0.0071 H   0  0
    0.2643   -2.7781   -0.2236 H   0  0
   -0.8146   -0.0439   -2.9711 H   0  0
   -0.5186   -2.4258   -3.1832 H   0  0
    1.5109    1.3176   -1.5570 H   0  0
    0.0680    2.1303   -2.2170 H   0  0
   -1.0143   -1.5883    1.2504 H   0  0
   -2.3867    0.7305   -1.3466 H   0  0
   -1.9138   -3.6926   -1.7801 H   0  0
    1.8288    2.1196   -3.6722 H   0  0
  1  2  1  0
  1  3  2  0
  2  4  2  0
  3  8  1  0
  4  9  1  0
  5  6  1  0
  5  8  2  0
  6 10  2  0
  7  9  2  0
  7 10  1  0
  8  9  1  0
 10 22  1  0
 11 12  1  0
 11 13  1  0
 11 18  1  0
 12 14  1  0
 12 19  1  0
 13 15  1  0
 13 20  1  0
 14 16  1  0
 14 17  1  0
 15 17  1  0
 15 22  1  0
 16 21  1  0
  1 23  1  0
  2 24  1  0
  3 25  1  0
  4 26  1  0
  5 27  1  0
  6 28  1  0
  7 29  1  0
 11 30  1  0
 12 31  1  0
 13 32  1  0
 14 33  1  0
 15 34  1  0
 16 35  1  0
 16 36  1  0
 18 37  1  0
 19 38  1  0
 20 39  1  0
 21 40  1  0
M  END
> <Name>
BR010512

$$$$
BR010513
  SciTegic05062102053D

 36 37  0  0  1  0            999 V2000
    1.9544   -3.3452   -6.1455 C   0  0
    4.0034   -3.1849   -4.8755 C   0  0
    1.2233   -3.4021   -4.9589 C   0  0
    3.2723   -3.2417   -3.6889 C   0  0
    3.3444   -3.2366   -6.1038 C   0  0
    1.8823   -3.3503   -3.7306 C   0  0
    4.1068   -3.1771   -7.3408 C   0  0
   -1.4240   -1.4908   -0.6420 C   0  0  1  0  0  0
   -0.7391   -0.1332   -0.8004 C   0  0  1  0  0  0
   -0.4804   -2.6337   -1.0165 C   0  0  2  0  0  0
   -0.0643   -0.0218   -2.1696 C   0  0  1  0  0  0
    0.2035   -2.3731   -2.3586 C   0  0  1  0  0  0
    0.7314    1.2714   -2.3175 C   0  0
    5.3368   -3.0807   -7.3704 O   0  0
    0.8515   -1.1032   -2.3511 O   0  0
   -1.8241   -1.6404    0.7212 O   0  0
   -1.7290    0.8812   -0.6501 O   0  0
   -1.2427   -3.8373   -1.0959 O   0  0
    1.3285    1.2888   -3.6013 O   0  0
    1.1656   -3.4063   -2.5667 O   0  0
    1.4300   -3.3860   -7.0968 H   0  0
    5.0862   -3.1001   -4.8322 H   0  0
    0.1408   -3.4868   -4.9980 H   0  0
    3.7912   -3.2013   -2.7350 H   0  0
    3.5377   -3.2216   -8.2950 H   0  0
   -2.3429   -1.5299   -1.2405 H   0  0
   -0.0062   -0.0080    0.0071 H   0  0
    0.2643   -2.7781   -0.2236 H   0  0
   -0.8146   -0.0439   -2.9711 H   0  0
   -0.5186   -2.4258   -3.1832 H   0  0
    1.5109    1.3176   -1.5570 H   0  0
    0.0680    2.1303   -2.2170 H   0  0
   -1.0143   -1.5883    1.2504 H   0  0
   -2.3867    0.7305   -1.3466 H   0  0
   -1.9138   -3.6926   -1.7801 H   0  0
    1.8288    2.1196   -3.6722 H   0  0
  1  3  1  0
  1  5  2  0
  2  4  2  0
  2  5  1  0
  3  6  2  0
  4  6  1  0
  5  7  1  0
  6 20  1  0
  7 14  2  0
  8  9  1  0
  8 10  1  0
  8 16  1  0
  9 11  1  0
  9 17  1  0
 10 12  1  0
 10 18  1  0
 11 13  1  0
 11 15  1  0
 12 15  1  0
 12 20  1  0
 13 19  1  0
  1 21  1  0
  2 22  1  0
  3 23  1  0
  4 24  1  0
  7 25  1  0
  8 26  1  0
  9 27  1  0
 10 28  1  0
 11 29  1  0
 12 30  1  0
 13 31  1  0
 13 32  1  0
 16 33  1  0
 17 34  1  0
 18 35  1  0
 19 36  1  0
M  END
> <Name>
BR010513

$$$$
BR010514
  SciTegic05062102053D

 40 41  0  0  1  0            999 V2000
    1.9302   -3.3469   -6.1461 C   0  0
    1.2111   -3.4030   -4.9523 C   0  0
    3.9918   -3.1855   -4.8968 C   0  0
    3.3206   -3.2383   -6.1184 C   0  0
    1.8823   -3.3503   -3.7306 C   0  0
    3.2727   -3.2416   -3.7029 C   0  0
    4.0704   -3.1819   -7.3632 C   0  0
   -1.4240   -1.4908   -0.6420 C   0  0  1  0  0  0
   -0.7391   -0.1332   -0.8004 C   0  0  1  0  0  0
   -0.4804   -2.6337   -1.0165 C   0  0  2  0  0  0
   -0.0643   -0.0218   -2.1696 C   0  0  1  0  0  0
    0.2035   -2.3731   -2.3586 C   0  0  1  0  0  0
    5.3607   -3.0804   -2.5759 C   0  0
    0.7314    1.2714   -2.3175 C   0  0
    5.3000   -3.0855   -7.4055 O   0  0
    0.8515   -1.1032   -2.3511 O   0  0
   -1.8241   -1.6404    0.7212 O   0  0
   -1.7290    0.8812   -0.6501 O   0  0
   -1.2427   -3.8373   -1.0959 O   0  0
    1.3285    1.2888   -3.6013 O   0  0
    1.1656   -3.4063   -2.5667 O   0  0
    3.9400   -3.1917   -2.5164 O   0  0
    1.3967   -3.3889   -7.0922 H   0  0
    0.1282   -3.4874   -4.9805 H   0  0
    5.0760   -3.1032   -4.8717 H   0  0
    3.4917   -3.2289   -8.3115 H   0  0
   -2.3429   -1.5299   -1.2405 H   0  0
   -0.0062   -0.0080    0.0071 H   0  0
    0.2643   -2.7781   -0.2236 H   0  0
   -0.8146   -0.0439   -2.9711 H   0  0
   -0.5186   -2.4258   -3.1832 H   0  0
    5.7674   -3.0505   -1.5622 H   0  0
    5.6334   -2.1704   -3.1164 H   0  0
    5.7635   -3.9490   -3.1023 H   0  0
    1.5109    1.3176   -1.5570 H   0  0
    0.0680    2.1303   -2.2170 H   0  0
   -1.0143   -1.5883    1.2504 H   0  0
   -2.3867    0.7305   -1.3466 H   0  0
   -1.9138   -3.6926   -1.7801 H   0  0
    1.8288    2.1196   -3.6722 H   0  0
  1  2  2  0
  1  4  1  0
  2  5  1  0
  3  4  2  0
  3  6  1  0
  4  7  1  0
  5  6  2  0
  5 21  1  0
  6 22  1  0
  7 15  2  0
  8  9  1  0
  8 10  1  0
  8 17  1  0
  9 11  1  0
  9 18  1  0
 10 12  1  0
 10 19  1  0
 11 14  1  0
 11 16  1  0
 12 16  1  0
 12 21  1  0
 13 22  1  0
 14 20  1  0
  1 23  1  0
  2 24  1  0
  3 25  1  0
  7 26  1  0
  8 27  1  0
  9 28  1  0
 10 29  1  0
 11 30  1  0
 12 31  1  0
 13 32  1  0
 13 33  1  0
 13 34  1  0
 14 35  1  0
 14 36  1  0
 17 37  1  0
 18 38  1  0
 19 39  1  0
 20 40  1  0
M  END
> <Name>
BR010514

$$$$
BR010515
  SciTegic05062102053D

 38 39  0  0  1  0            999 V2000
    1.2233   -3.4021   -4.9590 C   0  0
    3.2722   -3.2399   -3.6889 C   0  0
    1.9542   -3.3433   -6.1456 C   0  0
    4.0031   -3.1812   -4.8755 C   0  0
    1.8823   -3.3503   -3.7306 C   0  0
    3.3440   -3.2329   -6.1038 C   0  0
   -1.4240   -1.4908   -0.6420 C   0  0  1  0  0  0
   -0.7391   -0.1332   -0.8004 C   0  0  1  0  0  0
   -0.4804   -2.6337   -1.0165 C   0  0  2  0  0  0
   -0.0643   -0.0218   -2.1696 C   0  0  1  0  0  0
    0.2035   -2.3731   -2.3586 C   0  0  1  0  0  0
    5.4748   -3.0629   -7.1463 C   0  0
    0.7314    1.2714   -2.3175 C   0  0
    0.8515   -1.1032   -2.3511 O   0  0
   -1.8241   -1.6404    0.7212 O   0  0
   -1.7290    0.8812   -0.6501 O   0  0
   -1.2427   -3.8373   -1.0959 O   0  0
    1.3285    1.2888   -3.6013 O   0  0
    1.1656   -3.4063   -2.5667 O   0  0
    4.0572   -3.1754   -7.2618 O   0  0
    0.1407   -3.4856   -4.9978 H   0  0
    3.7906   -3.1984   -2.7349 H   0  0
    1.4357   -3.3854   -7.0994 H   0  0
    5.0855   -3.0950   -4.8369 H   0  0
   -2.3429   -1.5299   -1.2405 H   0  0
   -0.0062   -0.0080    0.0071 H   0  0
    0.2643   -2.7781   -0.2236 H   0  0
   -0.8146   -0.0439   -2.9711 H   0  0
   -0.5186   -2.4258   -3.1832 H   0  0
    5.9206   -3.0267   -8.1434 H   0  0
    5.8653   -3.9199   -6.5918 H   0  0
    5.7157   -2.1429   -6.6084 H   0  0
    1.5109    1.3176   -1.5570 H   0  0
    0.0680    2.1303   -2.2170 H   0  0
   -1.0143   -1.5883    1.2504 H   0  0
   -2.3867    0.7305   -1.3466 H   0  0
   -1.9138   -3.6926   -1.7801 H   0  0
    1.8288    2.1196   -3.6722 H   0  0
  1  3  1  0
  1  5  2  0
  2  4  2  0
  2  5  1  0
  3  6  2  0
  4  6  1  0
  5 19  1  0
  6 20  1  0
  7  8  1  0
  7  9  1  0
  7 15  1  0
  8 10  1  0
  8 16  1  0
  9 11  1  0
  9 17  1  0
 10 13  1  0
 10 14  1  0
 11 14  1  0
 11 19  1  0
 12 20  1  0
 13 18  1  0
  1 21  1  0
  2 22  1  0
  3 23  1  0
  4 24  1  0
  7 25  1  0
  8 26  1  0
  9 27  1  0
 10 28  1  0
 11 29  1  0
 12 30  1  0
 12 31  1  0
 12 32  1  0
 13 33  1  0
 13 34  1  0
 15 35  1  0
 16 36  1  0
 17 37  1  0
 18 38  1  0
M  END
> <Name>
BR010515

$$$$
BR010516
  SciTegic05062102053D

 39 41  0  0  1  0            999 V2000
    3.9329   -5.3607    5.8776 C   0  0
    4.1026   -4.2901    4.9998 C   0  0
    3.4302   -6.5744    5.4083 C   0  0
    3.7696   -4.4329    3.6529 C   0  0
    3.0973   -6.7172    4.0613 C   0  0
    3.2670   -5.6465    3.1836 C   0  0
    2.9256   -5.7935    1.7986 C   0  0
    2.4236   -5.1207   -0.1278 C   0  0
    1.9209    0.0443   -0.9874 C   0  0  1  0  0  0
    1.0612    0.0360    0.2772 C   0  0  1  0  0  0
    1.9118   -1.3226   -1.6792 C   0  0  2  0  0  0
    1.4198   -1.1584    1.1651 C   0  0  1  0  0  0
    2.1983   -2.4446   -0.6761 C   0  0  1  0  0  0
    0.5011   -1.2720    2.3777 C   0  0
    2.7791   -6.8736    1.0674 N   0  0
    2.4490   -6.4310   -0.1999 N   0  0
    2.7162   -4.6378    1.1107 O   0  0
    1.2939   -2.3738    0.4259 O   0  0
    1.3966    1.0267   -1.8831 O   0  0
    1.2863    1.2588    0.9736 O   0  0
    2.9129   -1.2968   -2.6956 O   0  0
    0.8925   -2.4023    3.1353 O   0  0
    2.0477   -4.0723   -1.4960 S   0  0
    4.1927   -5.2496    6.9263 H   0  0
    4.4938   -3.3451    5.3655 H   0  0
    3.2991   -7.4084    6.0915 H   0  0
    3.9102   -3.5898    2.9807 H   0  0
    2.7056   -7.6693    3.7113 H   0  0
    2.9461    0.3565   -0.7518 H   0  0
    0.0027    0.0046   -0.0114 H   0  0
    0.9384   -1.4623   -2.1675 H   0  0
    2.4491   -1.0658    1.5362 H   0  0
    3.2289   -2.3827   -0.3066 H   0  0
   -0.5315   -1.3967    2.0517 H   0  0
    0.5867   -0.3774    2.9946 H   0  0
    0.4851    0.7613   -2.0752 H   0  0
    2.2321    1.2856    1.1863 H   0  0
    3.7549   -1.1252   -2.2473 H   0  0
    0.2946   -2.4540    3.9005 H   0  0
  1  2  2  0
  1  3  1  0
  2  4  1  0
  3  5  2  0
  4  6  2  0
  5  6  1  0
  6  7  1  0
  7 15  2  0
  7 17  1  0
  8 16  2  0
  8 17  1  0
  8 23  1  0
  9 10  1  0
  9 11  1  0
  9 19  1  0
 10 12  1  0
 10 20  1  0
 11 13  1  0
 11 21  1  0
 12 14  1  0
 12 18  1  0
 13 18  1  0
 13 23  1  0
 14 22  1  0
 15 16  1  0
  1 24  1  0
  2 25  1  0
  3 26  1  0
  4 27  1  0
  5 28  1  0
  9 29  1  0
 10 30  1  0
 11 31  1  0
 12 32  1  0
 13 33  1  0
 14 34  1  0
 14 35  1  0
 19 36  1  0
 20 37  1  0
 21 38  1  0
 22 39  1  0
M  END
> <Name>
BR010516

$$$$
BR010517
  SciTegic05062102053D

 42 44  0  0  1  0            999 V2000
    3.7697   -4.4330    3.6530 C   0  0
    3.0963   -6.7171    4.0613 C   0  0
    4.1016   -4.2900    5.0002 C   0  0
    3.4283   -6.5741    5.4085 C   0  0
    3.2670   -5.6465    3.1836 C   0  0
    3.9310   -5.3605    5.8780 C   0  0
    2.9256   -5.7935    1.7986 C   0  0
    2.4236   -5.1207   -0.1278 C   0  0
    1.9209    0.0443   -0.9874 C   0  0  1  0  0  0
    1.0612    0.0360    0.2772 C   0  0  1  0  0  0
    1.9118   -1.3226   -1.6792 C   0  0  2  0  0  0
    1.4198   -1.1584    1.1651 C   0  0  1  0  0  0
    2.1983   -2.4446   -0.6761 C   0  0  1  0  0  0
    4.2855   -5.2074    7.3184 C   0  0
    0.5011   -1.2720    2.3777 C   0  0
    2.7791   -6.8736    1.0674 N   0  0
    2.4490   -6.4310   -0.1999 N   0  0
    2.7162   -4.6378    1.1107 O   0  0
    1.2939   -2.3738    0.4259 O   0  0
    1.3966    1.0267   -1.8831 O   0  0
    1.2863    1.2588    0.9736 O   0  0
    2.9129   -1.2968   -2.6956 O   0  0
    0.8925   -2.4023    3.1353 O   0  0
    2.0477   -4.0723   -1.4960 S   0  0
    3.9082   -3.5891    2.9814 H   0  0
    2.7059   -7.6695    3.7105 H   0  0
    4.4922   -3.3408    5.3574 H   0  0
    3.2920   -7.4137    6.0850 H   0  0
    2.9461    0.3565   -0.7518 H   0  0
    0.0027    0.0046   -0.0114 H   0  0
    0.9384   -1.4623   -2.1675 H   0  0
    2.4491   -1.0658    1.5362 H   0  0
    3.2289   -2.3827   -0.3066 H   0  0
    3.4195   -4.8503    7.8891 H   0  0
    4.6179   -6.1603    7.7505 H   0  0
    5.1089   -4.4937    7.4525 H   0  0
   -0.5315   -1.3967    2.0517 H   0  0
    0.5867   -0.3774    2.9946 H   0  0
    0.4851    0.7613   -2.0752 H   0  0
    2.2321    1.2856    1.1863 H   0  0
    3.7549   -1.1252   -2.2473 H   0  0
    0.2946   -2.4540    3.9005 H   0  0
  1  3  2  0
  1  5  1  0
  2  4  1  0
  2  5  2  0
  3  6  1  0
  4  6  2  0
  5  7  1  0
  6 14  1  0
  7 16  2  0
  7 18  1  0
  8 17  2  0
  8 18  1  0
  8 24  1  0
  9 10  1  0
  9 11  1  0
  9 20  1  0
 10 12  1  0
 10 21  1  0
 11 13  1  0
 11 22  1  0
 12 15  1  0
 12 19  1  0
 13 19  1  0
 13 24  1  0
 15 23  1  0
 16 17  1  0
  1 25  1  0
  2 26  1  0
  3 27  1  0
  4 28  1  0
  9 29  1  0
 10 30  1  0
 11 31  1  0
 12 32  1  0
 13 33  1  0
 14 34  1  0
 14 35  1  0
 14 36  1  0
 15 37  1  0
 15 38  1  0
 20 39  1  0
 21 40  1  0
 22 41  1  0
 23 42  1  0
M  END
> <Name>
BR010517

$$$$
BR010518
  SciTegic05062102053D

 41 43  0  0  1  0            999 V2000
    6.0823   -3.0216   -3.7416 C   0  0
    5.3970   -3.0750   -2.5315 C   0  0
    1.8647   -3.3520   -6.1447 C   0  0
    5.3794   -3.0768   -4.9455 C   0  0
    4.0062   -3.1838   -2.5206 C   0  0
    3.2555   -3.2431   -6.1556 C   0  0
    1.1794   -3.4055   -4.9345 C   0  0
    3.9793   -3.1864   -4.9534 C   0  0
    3.2824   -3.2407   -3.7228 C   0  0
    1.8823   -3.3503   -3.7306 C   0  0
   -1.4240   -1.4908   -0.6420 C   0  0  1  0  0  0
   -0.7391   -0.1332   -0.8004 C   0  0  1  0  0  0
   -0.4804   -2.6337   -1.0165 C   0  0  2  0  0  0
   -0.0643   -0.0218   -2.1696 C   0  0  1  0  0  0
    0.2035   -2.3731   -2.3586 C   0  0  1  0  0  0
    0.7314    1.2714   -2.3175 C   0  0
    2.6441    3.2264   -4.1646 N   0  5
    1.3339    1.2996   -3.6459 N   0  0
    2.0176    2.3064   -3.9150 N   0  3
    0.8515   -1.1032   -2.3511 O   0  0
   -1.8241   -1.6404    0.7212 O   0  0
   -1.7290    0.8812   -0.6501 O   0  0
   -1.2427   -3.8373   -1.0959 O   0  0
    1.1656   -3.4063   -2.5667 O   0  0
    7.1651   -2.9368   -3.7494 H   0  0
    5.9451   -3.0320   -1.5947 H   0  0
    1.3169   -3.3950   -7.0816 H   0  0
    5.9357   -3.0334   -5.8795 H   0  0
    3.5017   -3.2232   -1.5576 H   0  0
    3.7704   -3.2030   -7.1132 H   0  0
    0.0960   -3.4903   -4.9349 H   0  0
   -2.3429   -1.5299   -1.2405 H   0  0
   -0.0062   -0.0080    0.0071 H   0  0
    0.2643   -2.7781   -0.2236 H   0  0
   -0.8146   -0.0439   -2.9711 H   0  0
   -0.5186   -2.4258   -3.1832 H   0  0
    1.5104    1.3147   -1.5554 H   0  0
    0.0692    2.1289   -2.1920 H   0  0
   -1.0143   -1.5883    1.2504 H   0  0
   -2.3867    0.7305   -1.3466 H   0  0
   -1.9138   -3.6926   -1.7801 H   0  0
  1  2  1  0
  1  4  2  0
  2  5  2  0
  3  6  1  0
  3  7  2  0
  4  8  1  0
  5  9  1  0
  6  8  2  0
  7 10  1  0
  8  9  1  0
  9 10  2  0
 10 24  1  0
 11 12  1  0
 11 13  1  0
 11 21  1  0
 12 14  1  0
 12 22  1  0
 13 15  1  0
 13 23  1  0
 14 16  1  0
 14 20  1  0
 15 20  1  0
 15 24  1  0
 16 18  1  0
 17 19  2  0
 18 19  2  0
  1 25  1  0
  2 26  1  0
  3 27  1  0
  4 28  1  0
  5 29  1  0
  6 30  1  0
  7 31  1  0
 11 32  1  0
 12 33  1  0
 13 34  1  0
 14 35  1  0
 15 36  1  0
 16 37  1  0
 16 38  1  0
 21 39  1  0
 22 40  1  0
 23 41  1  0
M  CHG  2  17  -1  19   1
M  END
> <Name>
BR010518

$$$$
BR010519
  SciTegic05062102053D

 41 43  0  0  1  0            999 V2000
    5.4936   -3.0669   -7.2644 C   0  0
    6.1519   -3.0152   -6.0394 C   0  0
    4.1033   -3.1760   -7.3062 C   0  0
    5.4226   -3.0723   -4.8514 C   0  0
    1.9533   -3.3448   -6.1436 C   0  0
    1.2239   -3.4020   -4.9557 C   0  0
    3.2726   -3.2412   -3.6888 C   0  0
    3.3532   -3.2349   -6.1204 C   0  0
    4.0227   -3.1823   -4.8746 C   0  0
    1.8823   -3.3503   -3.7306 C   0  0
   -1.4240   -1.4908   -0.6420 C   0  0  1  0  0  0
   -0.7391   -0.1332   -0.8004 C   0  0  1  0  0  0
   -0.4804   -2.6337   -1.0165 C   0  0  2  0  0  0
   -0.0643   -0.0218   -2.1696 C   0  0  1  0  0  0
    0.2035   -2.3731   -2.3586 C   0  0  1  0  0  0
    0.7314    1.2714   -2.3175 C   0  0
    2.6441    3.2264   -4.1646 N   0  5
    1.3339    1.2996   -3.6459 N   0  0
    2.0176    2.3064   -3.9150 N   0  3
    0.8515   -1.1032   -2.3511 O   0  0
   -1.8241   -1.6404    0.7212 O   0  0
   -1.7290    0.8812   -0.6501 O   0  0
   -1.2427   -3.8373   -1.0959 O   0  0
    1.1656   -3.4063   -2.5667 O   0  0
    6.0621   -3.0230   -8.1887 H   0  0
    7.2343   -2.9299   -6.0071 H   0  0
    3.6089   -3.2154   -8.2746 H   0  0
    5.9584   -3.0309   -3.9053 H   0  0
    1.4177   -3.3875   -7.0900 H   0  0
    0.1413   -3.4876   -4.9942 H   0  0
    3.7721   -3.2017   -2.7224 H   0  0
   -2.3429   -1.5299   -1.2405 H   0  0
   -0.0062   -0.0080    0.0071 H   0  0
    0.2643   -2.7781   -0.2236 H   0  0
   -0.8146   -0.0439   -2.9711 H   0  0
   -0.5186   -2.4258   -3.1832 H   0  0
    1.5104    1.3147   -1.5554 H   0  0
    0.0692    2.1289   -2.1920 H   0  0
   -1.0143   -1.5883    1.2504 H   0  0
   -2.3867    0.7305   -1.3466 H   0  0
   -1.9138   -3.6926   -1.7801 H   0  0
  1  2  1  0
  1  3  2  0
  2  4  2  0
  3  8  1  0
  4  9  1  0
  5  6  1  0
  5  8  2  0
  6 10  2  0
  7  9  2  0
  7 10  1  0
  8  9  1  0
 10 24  1  0
 11 12  1  0
 11 13  1  0
 11 21  1  0
 12 14  1  0
 12 22  1  0
 13 15  1  0
 13 23  1  0
 14 16  1  0
 14 20  1  0
 15 20  1  0
 15 24  1  0
 16 18  1  0
 17 19  2  0
 18 19  2  0
  1 25  1  0
  2 26  1  0
  3 27  1  0
  4 28  1  0
  5 29  1  0
  6 30  1  0
  7 31  1  0
 11 32  1  0
 12 33  1  0
 13 34  1  0
 14 35  1  0
 15 36  1  0
 16 37  1  0
 16 38  1  0
 21 39  1  0
 22 40  1  0
 23 41  1  0
M  CHG  2  17  -1  19   1
M  END
> <Name>
BR010519

$$$$
BR010520
  SciTegic05062102053D

 42 44  0  0  1  0            999 V2000
    6.0823   -3.0216   -3.7416 C   0  0
    5.3970   -3.0750   -2.5315 C   0  0
    1.8647   -3.3520   -6.1447 C   0  0
    5.3794   -3.0768   -4.9455 C   0  0
    4.0062   -3.1838   -2.5206 C   0  0
    3.2555   -3.2431   -6.1556 C   0  0
    1.1794   -3.4055   -4.9345 C   0  0
    3.9793   -3.1864   -4.9534 C   0  0
    3.2824   -3.2407   -3.7228 C   0  0
    1.8823   -3.3503   -3.7306 C   0  0
   -1.4240   -1.4908   -0.6420 C   0  0  1  0  0  0
   -0.7391   -0.1332   -0.8004 C   0  0  1  0  0  0
   -0.4804   -2.6337   -1.0165 C   0  0  2  0  0  0
   -0.0643   -0.0218   -2.1696 C   0  0  1  0  0  0
    0.2035   -2.3731   -2.3586 C   0  0  1  0  0  0
    0.7314    1.2714   -2.3175 C   0  0
    1.3813    1.2805   -3.6444 N   0  3
    0.8515   -1.1032   -2.3511 O   0  0
   -1.8241   -1.6404    0.7212 O   0  0
   -1.7290    0.8812   -0.6501 O   0  0
   -1.2427   -3.8373   -1.0959 O   0  0
    1.1656   -3.4063   -2.5667 O   0  0
    7.1651   -2.9368   -3.7494 H   0  0
    5.9451   -3.0320   -1.5947 H   0  0
    1.3169   -3.3950   -7.0816 H   0  0
    5.9357   -3.0334   -5.8795 H   0  0
    3.5017   -3.2232   -1.5576 H   0  0
    3.7704   -3.2030   -7.1132 H   0  0
    0.0960   -3.4903   -4.9349 H   0  0
   -2.3429   -1.5299   -1.2405 H   0  0
   -0.0062   -0.0080    0.0071 H   0  0
    0.2643   -2.7781   -0.2236 H   0  0
   -0.8146   -0.0439   -2.9711 H   0  0
   -0.5186   -2.4258   -3.1832 H   0  0
    1.5164    1.3368   -1.5657 H   0  0
    0.0787    2.1414   -2.2642 H   0  0
    2.2741    0.7720   -3.6260 H   0  0
    1.5763    2.2402   -3.9569 H   0  0
    0.7851    0.8371   -4.3547 H   0  0
   -1.0143   -1.5883    1.2504 H   0  0
   -2.3867    0.7305   -1.3466 H   0  0
   -1.9138   -3.6926   -1.7801 H   0  0
  1  2  1  0
  1  4  2  0
  2  5  2  0
  3  6  1  0
  3  7  2  0
  4  8  1  0
  5  9  1  0
  6  8  2  0
  7 10  1  0
  8  9  1  0
  9 10  2  0
 10 22  1  0
 11 12  1  0
 11 13  1  0
 11 19  1  0
 12 14  1  0
 12 20  1  0
 13 15  1  0
 13 21  1  0
 14 16  1  0
 14 18  1  0
 15 18  1  0
 15 22  1  0
 16 17  1  0
  1 23  1  0
  2 24  1  0
  3 25  1  0
  4 26  1  0
  5 27  1  0
  6 28  1  0
  7 29  1  0
 11 30  1  0
 12 31  1  0
 13 32  1  0
 14 33  1  0
 15 34  1  0
 16 35  1  0
 16 36  1  0
 17 37  1  0
 17 38  1  0
 17 39  1  0
 19 40  1  0
 20 41  1  0
 21 42  1  0
M  CHG  1  17   1
M  END
> <Name>
BR010520

$$$$
BR010521
  SciTegic05062102053D

 42 44  0  0  1  0            999 V2000
    5.4936   -3.0669   -7.2644 C   0  0
    6.1519   -3.0152   -6.0394 C   0  0
    4.1033   -3.1760   -7.3062 C   0  0
    5.4226   -3.0723   -4.8514 C   0  0
    1.9533   -3.3448   -6.1436 C   0  0
    1.2239   -3.4020   -4.9557 C   0  0
    3.2726   -3.2412   -3.6888 C   0  0
    3.3532   -3.2349   -6.1204 C   0  0
    4.0227   -3.1823   -4.8746 C   0  0
    1.8823   -3.3503   -3.7306 C   0  0
   -1.4240   -1.4908   -0.6420 C   0  0  1  0  0  0
   -0.7391   -0.1332   -0.8004 C   0  0  1  0  0  0
   -0.4804   -2.6337   -1.0165 C   0  0  2  0  0  0
   -0.0643   -0.0218   -2.1696 C   0  0  1  0  0  0
    0.2035   -2.3731   -2.3586 C   0  0  1  0  0  0
    0.7314    1.2714   -2.3175 C   0  0
    1.3813    1.2805   -3.6444 N   0  3
    0.8515   -1.1032   -2.3511 O   0  0
   -1.8241   -1.6404    0.7212 O   0  0
   -1.7290    0.8812   -0.6501 O   0  0
   -1.2427   -3.8373   -1.0959 O   0  0
    1.1656   -3.4063   -2.5667 O   0  0
    6.0621   -3.0230   -8.1887 H   0  0
    7.2343   -2.9299   -6.0071 H   0  0
    3.6089   -3.2154   -8.2746 H   0  0
    5.9584   -3.0309   -3.9053 H   0  0
    1.4177   -3.3875   -7.0900 H   0  0
    0.1413   -3.4876   -4.9942 H   0  0
    3.7721   -3.2017   -2.7224 H   0  0
   -2.3429   -1.5299   -1.2405 H   0  0
   -0.0062   -0.0080    0.0071 H   0  0
    0.2643   -2.7781   -0.2236 H   0  0
   -0.8146   -0.0439   -2.9711 H   0  0
   -0.5186   -2.4258   -3.1832 H   0  0
    1.5164    1.3368   -1.5657 H   0  0
    0.0787    2.1414   -2.2642 H   0  0
    2.2741    0.7720   -3.6260 H   0  0
    1.5763    2.2402   -3.9569 H   0  0
    0.7851    0.8371   -4.3547 H   0  0
   -1.0143   -1.5883    1.2504 H   0  0
   -2.3867    0.7305   -1.3466 H   0  0
   -1.9138   -3.6926   -1.7801 H   0  0
  1  2  1  0
  1  3  2  0
  2  4  2  0
  3  8  1  0
  4  9  1  0
  5  6  1  0
  5  8  2  0
  6 10  2  0
  7  9  2  0
  7 10  1  0
  8  9  1  0
 10 22  1  0
 11 12  1  0
 11 13  1  0
 11 19  1  0
 12 14  1  0
 12 20  1  0
 13 15  1  0
 13 21  1  0
 14 16  1  0
 14 18  1  0
 15 18  1  0
 15 22  1  0
 16 17  1  0
  1 23  1  0
  2 24  1  0
  3 25  1  0
  4 26  1  0
  5 27  1  0
  6 28  1  0
  7 29  1  0
 11 30  1  0
 12 31  1  0
 13 32  1  0
 14 33  1  0
 15 34  1  0
 16 35  1  0
 16 36  1  0
 17 37  1  0
 17 38  1  0
 17 39  1  0
 19 40  1  0
 20 41  1  0
 21 42  1  0
M  CHG  1  17   1
M  END
> <Name>
BR010521

$$$$
BR010522
  SciTegic05062102053D

 55 58  0  0  1  0            999 V2000
    3.7746    0.8830   -0.2049 C   0  0
    4.0650   -0.0241   -1.2196 C   0  0
   -0.1967    2.3165   -2.6227 C   0  0
    2.6430    1.6941   -0.2957 C   0  0
    3.2250   -0.1236   -2.3291 C   0  0
    0.6432    2.4159   -1.5132 C   0  0
    0.0937    1.4094   -3.6375 C   0  0
    1.7864    1.6074   -1.4052 C   0  0
    2.0818    0.6850   -2.4372 C   0  0
    1.2252    0.5983   -3.5467 C   0  0
   -2.6666   -1.5563    0.8261 C   0  0
   -3.0653   -1.1887   -0.5991 C   0  0
   -1.2139   -2.0154    0.8921 C   0  0
   -2.7796   -2.3217   -1.5743 C   0  0
   -0.9346   -3.1452   -0.0886 C   0  0
   -0.0181   -3.2844   -6.2501 C   0  0  1  0  0  0
   -0.3324   -4.0284   -4.9521 C   0  0  1  0  0  0
    0.9330   -2.1138   -6.0005 C   0  0  2  0  0  0
   -0.7511   -3.0494   -3.8526 C   0  0  1  0  0  0
    0.4630   -1.2563   -4.8255 C   0  0  1  0  0  0
   -0.9560   -3.7430   -2.5094 C   0  0
   -1.3224   -2.7083   -1.4814 N   0  3
    0.2648   -2.0622   -3.6664 O   0  0
    0.5934   -4.1997   -7.1606 O   0  0
   -1.3815   -4.9559   -5.2175 O   0  0
    0.9829   -1.3162   -7.1827 O   0  0
    1.4696   -0.2779   -4.5685 O   0  0
    4.4289    0.9599    0.6586 H   0  0
    4.9461   -0.6551   -1.1481 H   0  0
   -1.0778    2.9476   -2.6940 H   0  0
    2.4356    2.3960    0.5093 H   0  0
    3.4809   -0.8426   -3.1042 H   0  0
    0.3967    3.1319   -0.7319 H   0  0
   -0.5657    1.3382   -4.4984 H   0  0
   -2.8142   -0.6948    1.4871 H   0  0
   -3.3198   -2.3576    1.1929 H   0  0
   -4.1316   -0.9385   -0.6296 H   0  0
   -2.5185   -0.2896   -0.9098 H   0  0
   -0.5538   -1.1669    0.6728 H   0  0
   -0.9787   -2.3463    1.9099 H   0  0
   -3.3730   -3.2112   -1.3484 H   0  0
   -2.9652   -1.9995   -2.6011 H   0  0
    0.1313   -3.3817   -0.1074 H   0  0
   -1.5124   -4.0417    0.1499 H   0  0
   -0.9432   -2.9415   -6.7302 H   0  0
    0.5525   -4.6020   -4.6474 H   0  0
    1.9490   -2.4891   -5.8245 H   0  0
   -1.6941   -2.5535   -4.1179 H   0  0
   -0.4604   -0.7193   -5.0769 H   0  0
   -0.0407   -4.2295   -2.1757 H   0  0
   -1.7730   -4.4612   -2.5598 H   0  0
   -0.7719   -1.8632   -1.6967 H   0  0
    1.4012   -4.5154   -6.7287 H   0  0
   -2.1404   -4.4347   -5.5222 H   0  0
    0.0778   -1.0097   -7.3454 H   0  0
  1  2  1  0
  1  4  2  0
  2  5  2  0
  3  6  1  0
  3  7  2  0
  4  8  1  0
  5  9  1  0
  6  8  2  0
  7 10  1  0
  8  9  1  0
  9 10  2  0
 10 27  1  0
 11 12  1  0
 11 13  1  0
 12 14  1  0
 13 15  1  0
 14 22  1  0
 15 22  1  0
 16 17  1  0
 16 18  1  0
 16 24  1  0
 17 19  1  0
 17 25  1  0
 18 20  1  0
 18 26  1  0
 19 21  1  0
 19 23  1  0
 20 23  1  0
 20 27  1  0
 21 22  1  0
  1 28  1  0
  2 29  1  0
  3 30  1  0
  4 31  1  0
  5 32  1  0
  6 33  1  0
  7 34  1  0
 11 35  1  0
 11 36  1  0
 12 37  1  0
 12 38  1  0
 13 39  1  0
 13 40  1  0
 14 41  1  0
 14 42  1  0
 15 43  1  0
 15 44  1  0
 16 45  1  0
 17 46  1  0
 18 47  1  0
 19 48  1  0
 20 49  1  0
 21 50  1  0
 21 51  1  0
 22 52  1  0
 24 53  1  0
 25 54  1  0
 26 55  1  0
M  CHG  1  22   1
M  END
> <Name>
BR010522

$$$$
BR010523
  SciTegic05062102053D

 55 58  0  0  1  0            999 V2000
   -0.6597    4.1340   -0.4556 C   0  0
   -1.5281    4.0725   -1.5414 C   0  0
    0.4596    3.3025   -0.4084 C   0  0
   -1.2806    3.1793   -2.5841 C   0  0
    1.8462    1.5531   -1.4182 C   0  0
    2.0937    0.6598   -2.4609 C   0  0
    0.1059    1.4298   -3.5940 C   0  0
    0.7243    2.3974   -1.4491 C   0  0
   -0.1588    2.3349   -2.5533 C   0  0
    1.2252    0.5983   -3.5467 C   0  0
   -2.6666   -1.5563    0.8261 C   0  0
   -3.0653   -1.1887   -0.5991 C   0  0
   -1.2139   -2.0154    0.8921 C   0  0
   -2.7796   -2.3217   -1.5743 C   0  0
   -0.9346   -3.1452   -0.0886 C   0  0
   -0.0181   -3.2844   -6.2501 C   0  0  1  0  0  0
   -0.3324   -4.0284   -4.9521 C   0  0  1  0  0  0
    0.9330   -2.1138   -6.0005 C   0  0  2  0  0  0
   -0.7511   -3.0494   -3.8526 C   0  0  1  0  0  0
    0.4630   -1.2563   -4.8255 C   0  0  1  0  0  0
   -0.9560   -3.7430   -2.5094 C   0  0
   -1.3224   -2.7083   -1.4814 N   0  3
    0.2648   -2.0622   -3.6664 O   0  0
    0.5934   -4.1997   -7.1606 O   0  0
   -1.3815   -4.9559   -5.2175 O   0  0
    0.9829   -1.3162   -7.1827 O   0  0
    1.4696   -0.2779   -4.5685 O   0  0
   -0.8535    4.8291    0.3561 H   0  0
   -2.3993    4.7202   -1.5780 H   0  0
    1.1251    3.3666    0.4499 H   0  0
   -1.9734    3.1480   -3.4226 H   0  0
    2.5381    1.5836   -0.5790 H   0  0
    2.9667    0.0142   -2.4187 H   0  0
   -0.5633    1.3694   -4.4505 H   0  0
   -2.8142   -0.6948    1.4871 H   0  0
   -3.3198   -2.3576    1.1929 H   0  0
   -4.1316   -0.9385   -0.6296 H   0  0
   -2.5185   -0.2896   -0.9098 H   0  0
   -0.5538   -1.1669    0.6728 H   0  0
   -0.9787   -2.3463    1.9099 H   0  0
   -3.3730   -3.2112   -1.3484 H   0  0
   -2.9652   -1.9995   -2.6011 H   0  0
    0.1313   -3.3817   -0.1074 H   0  0
   -1.5124   -4.0417    0.1499 H   0  0
   -0.9432   -2.9415   -6.7302 H   0  0
    0.5525   -4.6020   -4.6474 H   0  0
    1.9490   -2.4891   -5.8245 H   0  0
   -1.6941   -2.5535   -4.1179 H   0  0
   -0.4604   -0.7193   -5.0769 H   0  0
   -0.0407   -4.2295   -2.1757 H   0  0
   -1.7730   -4.4612   -2.5598 H   0  0
   -0.7719   -1.8632   -1.6967 H   0  0
    1.4012   -4.5154   -6.7287 H   0  0
   -2.1404   -4.4347   -5.5222 H   0  0
    0.0778   -1.0097   -7.3454 H   0  0
  1  2  1  0
  1  3  2  0
  2  4  2  0
  3  8  1  0
  4  9  1  0
  5  6  1  0
  5  8  2  0
  6 10  2  0
  7  9  2  0
  7 10  1  0
  8  9  1  0
 10 27  1  0
 11 12  1  0
 11 13  1  0
 12 14  1  0
 13 15  1  0
 14 22  1  0
 15 22  1  0
 16 17  1  0
 16 18  1  0
 16 24  1  0
 17 19  1  0
 17 25  1  0
 18 20  1  0
 18 26  1  0
 19 21  1  0
 19 23  1  0
 20 23  1  0
 20 27  1  0
 21 22  1  0
  1 28  1  0
  2 29  1  0
  3 30  1  0
  4 31  1  0
  5 32  1  0
  6 33  1  0
  7 34  1  0
 11 35  1  0
 11 36  1  0
 12 37  1  0
 12 38  1  0
 13 39  1  0
 13 40  1  0
 14 41  1  0
 14 42  1  0
 15 43  1  0
 15 44  1  0
 16 45  1  0
 17 46  1  0
 18 47  1  0
 19 48  1  0
 20 49  1  0
 21 50  1  0
 21 51  1  0
 22 52  1  0
 24 53  1  0
 25 54  1  0
 26 55  1  0
M  CHG  1  22   1
M  END
> <Name>
BR010523

$$$$
BR010524
  SciTegic05062102053D

 28 28  0  0  1  0            999 V2000
    1.9514    0.1836    0.8896 C   0  0  1  0  0  0
    0.8918    0.6285   -0.1205 C   0  0  1  0  0  0
    1.5562    0.6052    2.3034 C   0  0  2  0  0  0
    0.5380    2.1106    0.0630 C   0  0  1  0  0  0
    1.1766    2.0855    2.3663 C   0  0  2  0  0  0
    2.0291    4.2445    2.7304 C   0  0
   -0.6270    2.5360   -0.8266 C   0  0
   -3.7866    2.1900   -1.7149 N   0  5
   -1.7961    1.7364   -0.4777 N   0  0
   -2.8346    1.9745   -1.1246 N   0  3
    0.1510    2.3791    1.4155 O   0  0
    2.0502   -1.2415    0.8372 O   0  0
    1.4072    0.4010   -1.4301 O   0  0
    2.6319    0.3331    3.1946 O   0  0
    2.3050    2.9468    2.2268 O   0  0
    2.9381    0.5738    0.6187 H   0  0
    0.0000    0.0003    0.0011 H   0  0
    0.7036   -0.0060    2.6232 H   0  0
    1.3968    2.7418   -0.2005 H   0  0
    0.7465    2.2944    3.3737 H   0  0
    2.9110    4.8783    2.6092 H   0  0
    1.7588    4.1763    3.7872 H   0  0
    1.1951    4.6734    2.1700 H   0  0
   -0.3675    2.3783   -1.8738 H   0  0
   -0.8410    3.5941   -0.6726 H   0  0
    1.1737   -1.5842    1.0667 H   0  0
    2.2156    0.9314   -1.5045 H   0  0
    2.3403    0.6143    4.0763 H   0  0
  1  2  1  0
  1  3  1  0
  1 12  1  0
  2  4  1  0
  2 13  1  0
  3  5  1  0
  3 14  1  0
  4  7  1  0
  4 11  1  0
  5 11  1  0
  5 15  1  0
  6 15  1  0
  7  9  1  0
  8 10  2  0
  9 10  2  0
  1 16  1  0
  2 17  1  0
  3 18  1  0
  4 19  1  0
  5 20  1  0
  6 21  1  0
  6 22  1  0
  6 23  1  0
  7 24  1  0
  7 25  1  0
 12 26  1  0
 13 27  1  0
 14 28  1  0
M  CHG  2   8  -1  10   1
M  END
> <Name>
BR010524

$$$$
BR010525
  SciTegic05062102053D

 25 25  0  0  1  0            999 V2000
   -1.4240   -1.4908   -0.6420 C   0  0  1  0  0  0
   -0.7391   -0.1332   -0.8004 C   0  0  1  0  0  0
   -0.4804   -2.6337   -1.0165 C   0  0  2  0  0  0
   -0.0643   -0.0218   -2.1696 C   0  0  1  0  0  0
    0.2035   -2.3731   -2.3586 C   0  0  1  0  0  0
    0.7314    1.2714   -2.3175 C   0  0
    3.1842    3.2233   -1.2853 N   0  5
    1.7684    1.3015   -1.2917 N   0  0
    2.5067    2.3057   -1.2899 N   0  3
    0.8515   -1.1032   -2.3511 O   0  0
   -1.8241   -1.6404    0.7212 O   0  0
   -1.7290    0.8812   -0.6501 O   0  0
   -1.2427   -3.8373   -1.0959 O   0  0
    1.1656   -3.4063   -2.5667 O   0  0
   -2.3429   -1.5299   -1.2405 H   0  0
   -0.0062   -0.0080    0.0071 H   0  0
    0.2643   -2.7781   -0.2236 H   0  0
   -0.8146   -0.0439   -2.9711 H   0  0
   -0.5186   -2.4258   -3.1832 H   0  0
    0.0677    2.1288   -2.2001 H   0  0
    1.1873    1.3133   -3.3075 H   0  0
   -1.0143   -1.5883    1.2504 H   0  0
   -2.3867    0.7305   -1.3466 H   0  0
   -1.9138   -3.6926   -1.7801 H   0  0
    1.5859   -3.2219   -3.4204 H   0  0
  1  2  1  0
  1  3  1  0
  1 11  1  0
  2  4  1  0
  2 12  1  0
  3  5  1  0
  3 13  1  0
  4  6  1  0
  4 10  1  0
  5 10  1  0
  5 14  1  0
  6  8  1  0
  7  9  2  0
  8  9  2  0
  1 15  1  0
  2 16  1  0
  3 17  1  0
  4 18  1  0
  5 19  1  0
  6 20  1  0
  6 21  1  0
 11 22  1  0
 12 23  1  0
 13 24  1  0
 14 25  1  0
M  CHG  2   7  -1   9   1
M  END
> <Name>
BR010525

$$$$
BR010526
  SciTegic05062102053D

 25 25  0  0  1  0            999 V2000
    1.9514    0.1836    0.8896 C   0  0  1  0  0  0
    0.8918    0.6285   -0.1205 C   0  0  1  0  0  0
    1.5562    0.6052    2.3034 C   0  0  2  0  0  0
    0.5380    2.1106    0.0630 C   0  0  1  0  0  0
    1.1766    2.0855    2.3663 C   0  0  2  0  0  0
   -0.6270    2.5360   -0.8266 C   0  0
   -3.7866    2.1900   -1.7149 N   0  5
   -1.7961    1.7364   -0.4777 N   0  0
   -2.8346    1.9745   -1.1246 N   0  3
    0.1510    2.3791    1.4155 O   0  0
    2.0502   -1.2415    0.8372 O   0  0
    1.4072    0.4010   -1.4301 O   0  0
    2.6319    0.3331    3.1946 O   0  0
    2.3050    2.9468    2.2268 O   0  0
    2.9381    0.5738    0.6187 H   0  0
    0.0000    0.0003    0.0011 H   0  0
    0.7036   -0.0060    2.6232 H   0  0
    1.3968    2.7418   -0.2005 H   0  0
    0.7465    2.2944    3.3737 H   0  0
   -0.3675    2.3783   -1.8738 H   0  0
   -0.8410    3.5941   -0.6726 H   0  0
    1.1737   -1.5842    1.0667 H   0  0
    2.2156    0.9314   -1.5045 H   0  0
    2.3403    0.6143    4.0763 H   0  0
    1.9664    3.8534    2.2791 H   0  0
  1  2  1  0
  1  3  1  0
  1 11  1  0
  2  4  1  0
  2 12  1  0
  3  5  1  0
  3 13  1  0
  4  6  1  0
  4 10  1  0
  5 10  1  0
  5 14  1  0
  6  8  1  0
  7  9  2  0
  8  9  2  0
  1 15  1  0
  2 16  1  0
  3 17  1  0
  4 18  1  0
  5 19  1  0
  6 20  1  0
  6 21  1  0
 11 22  1  0
 12 23  1  0
 13 24  1  0
 14 25  1  0
M  CHG  2   7  -1   9   1
M  END
> <Name>
BR010526

$$$$
BR010527
  SciTegic05062102053D

 45 45  0  0  1  0            999 V2000
   -2.9489   -2.3852    0.9259 C   0  0
   -1.5505    1.7303    0.4049 C   0  0
   -0.5781   -4.9802   -0.7549 C   0  0
    1.5578   -3.5952   -3.8607 C   0  0
   -1.4240   -1.4908   -0.6420 C   0  0  1  0  0  0
   -0.7391   -0.1332   -0.8004 C   0  0  1  0  0  0
   -0.4804   -2.6337   -1.0165 C   0  0  2  0  0  0
   -0.0643   -0.0218   -2.1696 C   0  0  1  0  0  0
    0.2035   -2.3731   -2.3586 C   0  0  1  0  0  0
   -3.2456   -2.4561    2.3933 C   0  0
   -2.6594    2.7379    0.4373 C   0  0
   -1.4975   -6.1567   -0.8841 C   0  0
    2.5639   -4.7040   -3.9266 C   0  0
    0.7314    1.2714   -2.3175 C   0  0
    3.1842    3.2233   -1.2853 N   0  5
    1.7684    1.3015   -1.2917 N   0  0
    2.5067    2.3057   -1.2899 N   0  3
   -3.6287   -2.9235    0.0626 O   0  0
   -0.6332    1.6947    1.2139 O   0  0
    0.5888   -5.0588   -0.3953 O   0  0
    1.1638   -2.9687   -4.8351 O   0  0
    0.8515   -1.1032   -2.3511 O   0  0
   -1.8241   -1.6404    0.7212 O   0  0
   -1.7290    0.8812   -0.6501 O   0  0
   -1.2427   -3.8373   -1.0959 O   0  0
    1.1656   -3.4063   -2.5667 O   0  0
   -2.3429   -1.5299   -1.2405 H   0  0
   -0.0062   -0.0080    0.0071 H   0  0
    0.2643   -2.7781   -0.2236 H   0  0
   -0.8146   -0.0439   -2.9711 H   0  0
   -0.5186   -2.4258   -3.1832 H   0  0
   -2.7433   -3.3218    2.8318 H   0  0
   -4.3255   -2.5163    2.5509 H   0  0
   -2.8728   -1.5517    2.8827 H   0  0
   -2.3816    3.6143   -0.1534 H   0  0
   -2.8729    3.0215    1.4710 H   0  0
   -3.5623    2.2976    0.0042 H   0  0
   -2.0182   -6.3261    0.0616 H   0  0
   -0.9275   -7.0428   -1.1746 H   0  0
   -2.2413   -5.9522   -1.6598 H   0  0
    3.5718   -4.2975   -3.8119 H   0  0
    2.4684   -5.2356   -4.8767 H   0  0
    2.3784   -5.4108   -3.1126 H   0  0
    0.0677    2.1288   -2.2001 H   0  0
    1.1873    1.3133   -3.3075 H   0  0
  1 10  1  0
  1 18  2  0
  1 23  1  0
  2 11  1  0
  2 19  2  0
  2 24  1  0
  3 12  1  0
  3 20  2  0
  3 25  1  0
  4 13  1  0
  4 21  2  0
  4 26  1  0
  5  6  1  0
  5  7  1  0
  5 23  1  0
  6  8  1  0
  6 24  1  0
  7  9  1  0
  7 25  1  0
  8 14  1  0
  8 22  1  0
  9 22  1  0
  9 26  1  0
 14 16  1  0
 15 17  2  0
 16 17  2  0
  5 27  1  0
  6 28  1  0
  7 29  1  0
  8 30  1  0
  9 31  1  0
 10 32  1  0
 10 33  1  0
 10 34  1  0
 11 35  1  0
 11 36  1  0
 11 37  1  0
 12 38  1  0
 12 39  1  0
 12 40  1  0
 13 41  1  0
 13 42  1  0
 13 43  1  0
 14 44  1  0
 14 45  1  0
M  CHG  2  15  -1  17   1
M  END
> <Name>
BR010527

$$$$
BR010528
  SciTegic05062102053D

 45 45  0  0  1  0            999 V2000
    3.2813   -1.7566    1.1216 C   0  0
    0.7131   -0.4958   -2.1914 C   0  0
    2.2749   -0.0105    4.4684 C   0  0
    2.1459    4.2115    2.7156 C   0  0
    1.9514    0.1836    0.8896 C   0  0  1  0  0  0
    0.8918    0.6285   -0.1205 C   0  0  1  0  0  0
    1.5562    0.6052    2.3034 C   0  0  2  0  0  0
    0.5380    2.1106    0.0630 C   0  0  1  0  0  0
    1.1766    2.0855    2.3663 C   0  0  2  0  0  0
    3.2349   -3.2517    1.0291 C   0  0
    1.3655   -0.6326   -3.5337 C   0  0
    3.5026   -0.2672    5.2886 C   0  0
    3.4039    4.9975    2.5018 C   0  0
   -0.6270    2.5360   -0.8266 C   0  0
   -3.7866    2.1900   -1.7149 N   0  5
   -1.7961    1.7364   -0.4777 N   0  0
   -2.8346    1.9745   -1.1246 N   0  3
    4.2846   -1.1188    1.4108 O   0  0
   -0.2913   -1.1069   -1.8522 O   0  0
    1.1327   -0.1020    4.8976 O   0  0
    1.1409    4.6593    3.2510 O   0  0
    0.1510    2.3791    1.4155 O   0  0
    2.0502   -1.2415    0.8372 O   0  0
    1.4072    0.4010   -1.4301 O   0  0
    2.6319    0.3331    3.1946 O   0  0
    2.3050    2.9468    2.2268 O   0  0
    2.9381    0.5738    0.6187 H   0  0
    0.0000    0.0003    0.0011 H   0  0
    0.7036   -0.0060    2.6232 H   0  0
    1.3968    2.7418   -0.2005 H   0  0
    0.7465    2.2944    3.3737 H   0  0
    2.9707   -3.6754    2.0012 H   0  0
    4.2024   -3.6328    0.6926 H   0  0
    2.4731   -3.5466    0.3016 H   0  0
    0.9405    0.0959   -4.2286 H   0  0
    1.2294   -1.6496   -3.9103 H   0  0
    2.4376   -0.4382   -3.4372 H   0  0
    3.7827   -1.3211    5.2173 H   0  0
    3.3192    0.0134    6.3288 H   0  0
    4.3282    0.3396    4.9053 H   0  0
    4.0647    4.8817    3.3644 H   0  0
    3.1604    6.0508    2.3413 H   0  0
    3.9203    4.6209    1.6140 H   0  0
   -0.3675    2.3783   -1.8738 H   0  0
   -0.8410    3.5941   -0.6726 H   0  0
  1 10  1  0
  1 18  2  0
  1 23  1  0
  2 11  1  0
  2 19  2  0
  2 24  1  0
  3 12  1  0
  3 20  2  0
  3 25  1  0
  4 13  1  0
  4 21  2  0
  4 26  1  0
  5  6  1  0
  5  7  1  0
  5 23  1  0
  6  8  1  0
  6 24  1  0
  7  9  1  0
  7 25  1  0
  8 14  1  0
  8 22  1  0
  9 22  1  0
  9 26  1  0
 14 16  1  0
 15 17  2  0
 16 17  2  0
  5 27  1  0
  6 28  1  0
  7 29  1  0
  8 30  1  0
  9 31  1  0
 10 32  1  0
 10 33  1  0
 10 34  1  0
 11 35  1  0
 11 36  1  0
 11 37  1  0
 12 38  1  0
 12 39  1  0
 12 40  1  0
 13 41  1  0
 13 42  1  0
 13 43  1  0
 14 44  1  0
 14 45  1  0
M  CHG  2  15  -1  17   1
M  END
> <Name>
BR010528

$$$$
BR010529
  SciTegic05062102053D

 59 61  0  0  1  0            999 V2000
   -1.5642   -8.4577   -3.0162 C   0  0
   -1.9470   -7.3645   -2.2390 C   0  0
   -0.4328   -8.3744   -3.8279 C   0  0
   -1.1984   -6.1880   -2.2735 C   0  0
    0.3157   -7.1980   -3.8624 C   0  0
   -0.0671   -6.1047   -3.0852 C   0  0
    0.7059   -4.8897   -3.1208 C   0  0
    2.3295   -3.6775   -3.7957 C   0  0
   -0.9888    1.9414   -3.2320 C   0  0
    0.2596    2.1399    0.9588 C   0  0
   -0.8016   -1.0837   -4.7107 C   0  0
    1.4461   -1.6634    3.0274 C   0  0
    0.4884    0.5452   -2.0269 C   0  0  1  0  0  0
    0.8544    0.4187   -0.5470 C   0  0  1  0  0  0
    0.4290   -0.8221   -2.7104 C   0  0  2  0  0  0
    2.0958   -0.4639   -0.3741 C   0  0  1  0  0  0
    1.6774   -1.6441   -2.3933 C   0  0  2  0  0  0
   -2.3665    2.5304   -3.1980 C   0  0
    0.6335    3.5242    1.3946 C   0  0
   -0.7641   -0.7912   -6.1801 C   0  0
    0.2038   -2.3353    3.5284 C   0  0
    2.4227   -0.7189    1.0939 C   0  0
    0.5158   -3.7794   -2.4806 N   0  0
    1.5499   -2.9861   -2.9011 N   0  0
   -0.1820    2.1369   -4.1309 O   0  0
   -0.6637    1.4964    1.4389 O   0  0
   -1.7232   -1.6615   -4.1504 O   0  0
    2.4253   -1.4275    3.7222 O   0  0
    1.7850   -4.9162   -3.9428 O   0  0
    1.8790   -1.7379   -0.9862 O   0  0
   -0.7924    1.1719   -2.1227 O   0  0
    1.0987    1.7264   -0.0369 O   0  0
    0.3336   -0.6101   -4.1175 O   0  0
    1.3145   -1.3612    1.6976 O   0  0
    3.6924   -3.2701   -4.6344 S   0  0
   -2.1471   -9.3737   -2.9894 H   0  0
   -2.8280   -7.4295   -1.6073 H   0  0
   -0.1346   -9.2257   -4.4328 H   0  0
   -1.5057   -5.3422   -1.6638 H   0  0
    1.1954   -7.1443   -4.4986 H   0  0
    1.1958    1.2085   -2.5406 H   0  0
   -0.0015   -0.0003   -0.0024 H   0  0
   -0.4803   -1.3485   -2.3930 H   0  0
    2.9724    0.0124   -0.8326 H   0  0
    2.5693   -1.2208   -2.8709 H   0  0
   -3.0701    1.8569   -3.6933 H   0  0
   -2.3633    3.5096   -3.6835 H   0  0
   -2.6803    2.6591   -2.1580 H   0  0
    1.3656    3.4730    2.2044 H   0  0
   -0.2596    4.0659    1.7160 H   0  0
    1.0815    4.0607    0.5531 H   0  0
   -1.2183    0.1832   -6.3759 H   0  0
   -1.2882   -1.5781   -6.7284 H   0  0
    0.2759   -0.7654   -6.5183 H   0  0
   -0.4995   -1.5857    3.8993 H   0  0
    0.4595   -3.0475    4.3170 H   0  0
   -0.2696   -2.8813    2.7071 H   0  0
    2.6121    0.2264    1.6026 H   0  0
    3.2993   -1.3618    1.1740 H   0  0
  1  2  1  0
  1  3  2  0
  2  4  2  0
  3  5  1  0
  4  6  1  0
  5  6  2  0
  6  7  1  0
  7 23  2  0
  7 29  1  0
  8 24  1  0
  8 29  1  0
  8 35  2  0
  9 18  1  0
  9 25  2  0
  9 31  1  0
 10 19  1  0
 10 26  2  0
 10 32  1  0
 11 20  1  0
 11 27  2  0
 11 33  1  0
 12 21  1  0
 12 28  2  0
 12 34  1  0
 13 14  1  0
 13 15  1  0
 13 31  1  0
 14 16  1  0
 14 32  1  0
 15 17  1  0
 15 33  1  0
 16 22  1  0
 16 30  1  0
 17 24  1  0
 17 30  1  0
 22 34  1  0
 23 24  1  0
  1 36  1  0
  2 37  1  0
  3 38  1  0
  4 39  1  0
  5 40  1  0
 13 41  1  0
 14 42  1  0
 15 43  1  0
 16 44  1  0
 17 45  1  0
 18 46  1  0
 18 47  1  0
 18 48  1  0
 19 49  1  0
 19 50  1  0
 19 51  1  0
 20 52  1  0
 20 53  1  0
 20 54  1  0
 21 55  1  0
 21 56  1  0
 21 57  1  0
 22 58  1  0
 22 59  1  0
M  END
> <Name>
BR010529

$$$$
BR010530
  SciTegic05062102053D

 62 64  0  0  1  0            999 V2000
   -1.1986   -6.1891   -2.2739 C   0  0
    0.3170   -7.1975   -3.8623 C   0  0
   -1.9461   -7.3663   -2.2398 C   0  0
   -0.4304   -8.3747   -3.8282 C   0  0
   -0.0671   -6.1047   -3.0852 C   0  0
   -1.5620   -8.4591   -3.0169 C   0  0
    0.7059   -4.8897   -3.1208 C   0  0
    2.3295   -3.6775   -3.7957 C   0  0
   -0.9888    1.9414   -3.2320 C   0  0
    0.2596    2.1399    0.9588 C   0  0
   -0.8016   -1.0837   -4.7107 C   0  0
    1.4461   -1.6634    3.0274 C   0  0
    0.4884    0.5452   -2.0269 C   0  0  1  0  0  0
    0.8544    0.4187   -0.5470 C   0  0  1  0  0  0
    0.4290   -0.8221   -2.7104 C   0  0  2  0  0  0
    2.0958   -0.4639   -0.3741 C   0  0  1  0  0  0
    1.6774   -1.6441   -2.3933 C   0  0  2  0  0  0
   -2.3610   -9.7180   -2.9792 C   0  0
   -2.3665    2.5304   -3.1980 C   0  0
    0.6335    3.5242    1.3946 C   0  0
   -0.7641   -0.7912   -6.1801 C   0  0
    0.2038   -2.3353    3.5284 C   0  0
    2.4227   -0.7189    1.0939 C   0  0
    0.5158   -3.7794   -2.4806 N   0  0
    1.5499   -2.9861   -2.9011 N   0  0
   -0.1820    2.1369   -4.1309 O   0  0
   -0.6637    1.4964    1.4389 O   0  0
   -1.7232   -1.6615   -4.1504 O   0  0
    2.4253   -1.4275    3.7222 O   0  0
    1.7850   -4.9162   -3.9428 O   0  0
    1.8790   -1.7379   -0.9862 O   0  0
   -0.7924    1.1719   -2.1227 O   0  0
    1.0987    1.7264   -0.0369 O   0  0
    0.3336   -0.6101   -4.1175 O   0  0
    1.3145   -1.3612    1.6976 O   0  0
    3.6924   -3.2701   -4.6344 S   0  0
   -1.5063   -5.3434   -1.6645 H   0  0
    1.1968   -7.1431   -4.4982 H   0  0
   -2.8260   -7.4234   -1.6046 H   0  0
   -0.1236   -9.2215   -4.4366 H   0  0
    1.1958    1.2085   -2.5406 H   0  0
   -0.0015   -0.0003   -0.0024 H   0  0
   -0.4803   -1.3485   -2.3930 H   0  0
    2.9724    0.0124   -0.8326 H   0  0
    2.5693   -1.2208   -2.8709 H   0  0
   -3.1472   -9.6942   -3.7436 H   0  0
   -1.7282  -10.5969   -3.1580 H   0  0
   -2.8332   -9.8608   -1.9985 H   0  0
   -3.0701    1.8569   -3.6933 H   0  0
   -2.3633    3.5096   -3.6835 H   0  0
   -2.6803    2.6591   -2.1580 H   0  0
    1.3656    3.4730    2.2044 H   0  0
   -0.2596    4.0659    1.7160 H   0  0
    1.0815    4.0607    0.5531 H   0  0
   -1.2183    0.1832   -6.3759 H   0  0
   -1.2882   -1.5781   -6.7284 H   0  0
    0.2759   -0.7654   -6.5183 H   0  0
   -0.4995   -1.5857    3.8993 H   0  0
    0.4595   -3.0475    4.3170 H   0  0
   -0.2696   -2.8813    2.7071 H   0  0
    2.6121    0.2264    1.6026 H   0  0
    3.2993   -1.3618    1.1740 H   0  0
  1  3  2  0
  1  5  1  0
  2  4  1  0
  2  5  2  0
  3  6  1  0
  4  6  2  0
  5  7  1  0
  6 18  1  0
  7 24  2  0
  7 30  1  0
  8 25  1  0
  8 30  1  0
  8 36  2  0
  9 19  1  0
  9 26  2  0
  9 32  1  0
 10 20  1  0
 10 27  2  0
 10 33  1  0
 11 21  1  0
 11 28  2  0
 11 34  1  0
 12 22  1  0
 12 29  2  0
 12 35  1  0
 13 14  1  0
 13 15  1  0
 13 32  1  0
 14 16  1  0
 14 33  1  0
 15 17  1  0
 15 34  1  0
 16 23  1  0
 16 31  1  0
 17 25  1  0
 17 31  1  0
 23 35  1  0
 24 25  1  0
  1 37  1  0
  2 38  1  0
  3 39  1  0
  4 40  1  0
 13 41  1  0
 14 42  1  0
 15 43  1  0
 16 44  1  0
 17 45  1  0
 18 46  1  0
 18 47  1  0
 18 48  1  0
 19 49  1  0
 19 50  1  0
 19 51  1  0
 20 52  1  0
 20 53  1  0
 20 54  1  0
 21 55  1  0
 21 56  1  0
 21 57  1  0
 22 58  1  0
 22 59  1  0
 22 60  1  0
 23 61  1  0
 23 62  1  0
M  END
> <Name>
BR010530

$$$$
BR010531
  SciTegic05062102053D

 59 61  0  0  1  0            999 V2000
   -1.1985   -6.1884   -2.2736 C   0  0
    0.3163   -7.1979   -3.8621 C   0  0
   -1.9465   -7.3651   -2.2391 C   0  0
   -0.4317   -8.3747   -3.8276 C   0  0
   -0.0671   -6.1047   -3.0852 C   0  0
   -1.5632   -8.4583   -3.0160 C   0  0
    0.7059   -4.8897   -3.1208 C   0  0
    2.3295   -3.6775   -3.7957 C   0  0
   -0.9888    1.9414   -3.2320 C   0  0
    0.2596    2.1399    0.9588 C   0  0
   -0.8016   -1.0837   -4.7107 C   0  0
    1.4461   -1.6634    3.0274 C   0  0
    0.4884    0.5452   -2.0269 C   0  0  1  0  0  0
    0.8544    0.4187   -0.5470 C   0  0  1  0  0  0
    0.4290   -0.8221   -2.7104 C   0  0  2  0  0  0
    2.0958   -0.4639   -0.3741 C   0  0  1  0  0  0
    1.6774   -1.6441   -2.3933 C   0  0  2  0  0  0
   -2.3665    2.5304   -3.1980 C   0  0
    0.6335    3.5242    1.3946 C   0  0
   -0.7641   -0.7912   -6.1801 C   0  0
    0.2038   -2.3353    3.5284 C   0  0
    2.4227   -0.7189    1.0939 C   0  0
    0.5158   -3.7794   -2.4806 N   0  0
    1.5499   -2.9861   -2.9011 N   0  0
   -0.1820    2.1369   -4.1309 O   0  0
   -0.6637    1.4964    1.4389 O   0  0
   -1.7232   -1.6615   -4.1504 O   0  0
    2.4253   -1.4275    3.7222 O   0  0
    1.7850   -4.9162   -3.9428 O   0  0
    1.8790   -1.7379   -0.9862 O   0  0
   -0.7924    1.1719   -2.1227 O   0  0
    1.0987    1.7264   -0.0369 O   0  0
    0.3336   -0.6101   -4.1175 O   0  0
    1.3145   -1.3612    1.6976 O   0  0
    3.6924   -3.2701   -4.6344 S   0  0
   -2.4852   -9.9104   -2.9723 Cl  0  0
   -1.5065   -5.3424   -1.6646 H   0  0
    1.1963   -7.1440   -4.4979 H   0  0
   -2.8256   -7.4166   -1.6017 H   0  0
   -0.1210   -9.2183   -4.4386 H   0  0
    1.1958    1.2085   -2.5406 H   0  0
   -0.0015   -0.0003   -0.0024 H   0  0
   -0.4803   -1.3485   -2.3930 H   0  0
    2.9724    0.0124   -0.8326 H   0  0
    2.5693   -1.2208   -2.8709 H   0  0
   -3.0701    1.8569   -3.6933 H   0  0
   -2.3633    3.5096   -3.6835 H   0  0
   -2.6803    2.6591   -2.1580 H   0  0
    1.3656    3.4730    2.2044 H   0  0
   -0.2596    4.0659    1.7160 H   0  0
    1.0815    4.0607    0.5531 H   0  0
   -1.2183    0.1832   -6.3759 H   0  0
   -1.2882   -1.5781   -6.7284 H   0  0
    0.2759   -0.7654   -6.5183 H   0  0
   -0.4995   -1.5857    3.8993 H   0  0
    0.4595   -3.0475    4.3170 H   0  0
   -0.2696   -2.8813    2.7071 H   0  0
    2.6121    0.2264    1.6026 H   0  0
    3.2993   -1.3618    1.1740 H   0  0
  1  3  2  0
  1  5  1  0
  2  4  1  0
  2  5  2  0
  3  6  1  0
  4  6  2  0
  5  7  1  0
  6 36  1  0
  7 23  2  0
  7 29  1  0
  8 24  1  0
  8 29  1  0
  8 35  2  0
  9 18  1  0
  9 25  2  0
  9 31  1  0
 10 19  1  0
 10 26  2  0
 10 32  1  0
 11 20  1  0
 11 27  2  0
 11 33  1  0
 12 21  1  0
 12 28  2  0
 12 34  1  0
 13 14  1  0
 13 15  1  0
 13 31  1  0
 14 16  1  0
 14 32  1  0
 15 17  1  0
 15 33  1  0
 16 22  1  0
 16 30  1  0
 17 24  1  0
 17 30  1  0
 22 34  1  0
 23 24  1  0
  1 37  1  0
  2 38  1  0
  3 39  1  0
  4 40  1  0
 13 41  1  0
 14 42  1  0
 15 43  1  0
 16 44  1  0
 17 45  1  0
 18 46  1  0
 18 47  1  0
 18 48  1  0
 19 49  1  0
 19 50  1  0
 19 51  1  0
 20 52  1  0
 20 53  1  0
 20 54  1  0
 21 55  1  0
 21 56  1  0
 21 57  1  0
 22 58  1  0
 22 59  1  0
M  END
> <Name>
BR010531

$$$$
BR010532
  SciTegic05062102053D

 55 57  0  0  1  0            999 V2000
   -1.5642   -8.4577   -3.0162 C   0  0
   -1.9470   -7.3645   -2.2390 C   0  0
   -0.4328   -8.3744   -3.8279 C   0  0
   -1.1984   -6.1880   -2.2735 C   0  0
    0.3157   -7.1980   -3.8624 C   0  0
   -0.0671   -6.1047   -3.0852 C   0  0
    0.7059   -4.8897   -3.1208 C   0  0
    2.3295   -3.6775   -3.7957 C   0  0
   -0.9888    1.9414   -3.2320 C   0  0
    0.2596    2.1399    0.9588 C   0  0
   -0.8016   -1.0837   -4.7107 C   0  0
    0.4884    0.5452   -2.0269 C   0  0  1  0  0  0
    0.8544    0.4187   -0.5470 C   0  0  1  0  0  0
    0.4290   -0.8221   -2.7104 C   0  0  2  0  0  0
    2.0958   -0.4639   -0.3741 C   0  0  1  0  0  0
    1.6774   -1.6441   -2.3933 C   0  0  2  0  0  0
   -2.3665    2.5304   -3.1980 C   0  0
    0.6335    3.5242    1.3946 C   0  0
   -0.7641   -0.7912   -6.1801 C   0  0
    2.4227   -0.7189    1.0939 C   0  0
    1.5228   -1.9310    4.0287 N   0  5
    0.5158   -3.7794   -2.4806 N   0  0
    1.2889   -1.3960    1.7142 N   0  0
    1.4128   -1.6746    2.9227 N   0  3
    1.5499   -2.9861   -2.9011 N   0  0
   -0.1820    2.1369   -4.1309 O   0  0
   -0.6637    1.4964    1.4389 O   0  0
   -1.7232   -1.6615   -4.1504 O   0  0
    1.7850   -4.9162   -3.9428 O   0  0
    1.8790   -1.7379   -0.9862 O   0  0
   -0.7924    1.1719   -2.1227 O   0  0
    1.0987    1.7264   -0.0369 O   0  0
    0.3336   -0.6101   -4.1175 O   0  0
    3.6924   -3.2701   -4.6344 S   0  0
   -2.1471   -9.3737   -2.9894 H   0  0
   -2.8280   -7.4295   -1.6073 H   0  0
   -0.1346   -9.2257   -4.4328 H   0  0
   -1.5057   -5.3422   -1.6638 H   0  0
    1.1954   -7.1443   -4.4986 H   0  0
    1.1958    1.2085   -2.5406 H   0  0
   -0.0015   -0.0003   -0.0024 H   0  0
   -0.4803   -1.3485   -2.3930 H   0  0
    2.9724    0.0124   -0.8326 H   0  0
    2.5693   -1.2208   -2.8709 H   0  0
   -3.0701    1.8569   -3.6933 H   0  0
   -2.3633    3.5096   -3.6835 H   0  0
   -2.6803    2.6591   -2.1580 H   0  0
    1.3656    3.4730    2.2044 H   0  0
   -0.2596    4.0659    1.7160 H   0  0
    1.0815    4.0607    0.5531 H   0  0
   -1.2183    0.1832   -6.3759 H   0  0
   -1.2882   -1.5781   -6.7284 H   0  0
    0.2759   -0.7654   -6.5183 H   0  0
    2.6117    0.2285    1.6001 H   0  0
    3.3146   -1.3421    1.1710 H   0  0
  1  2  1  0
  1  3  2  0
  2  4  2  0
  3  5  1  0
  4  6  1  0
  5  6  2  0
  6  7  1  0
  7 22  2  0
  7 29  1  0
  8 25  1  0
  8 29  1  0
  8 34  2  0
  9 17  1  0
  9 26  2  0
  9 31  1  0
 10 18  1  0
 10 27  2  0
 10 32  1  0
 11 19  1  0
 11 28  2  0
 11 33  1  0
 12 13  1  0
 12 14  1  0
 12 31  1  0
 13 15  1  0
 13 32  1  0
 14 16  1  0
 14 33  1  0
 15 20  1  0
 15 30  1  0
 16 25  1  0
 16 30  1  0
 20 23  1  0
 21 24  2  0
 22 25  1  0
 23 24  2  0
  1 35  1  0
  2 36  1  0
  3 37  1  0
  4 38  1  0
  5 39  1  0
 12 40  1  0
 13 41  1  0
 14 42  1  0
 15 43  1  0
 16 44  1  0
 17 45  1  0
 17 46  1  0
 17 47  1  0
 18 48  1  0
 18 49  1  0
 18 50  1  0
 19 51  1  0
 19 52  1  0
 19 53  1  0
 20 54  1  0
 20 55  1  0
M  CHG  2  21  -1  24   1
M  END
> <Name>
BR010532

$$$$
BR010533
  SciTegic05062102053D

 40 41  0  0  1  0            999 V2000
   -3.8202    1.1634   -0.6253 C   0  0
    6.5408   -2.5839    3.4965 C   0  0
   -4.2503   -0.0016   -1.2604 C   0  0
    6.4443   -3.9380    3.1760 C   0  0
   -2.5078    1.2621   -0.1632 C   0  0
    5.4090   -1.7707    3.4371 C   0  0
   -2.0556   -0.9695   -0.9711 C   0  0
    4.0842   -3.6657    2.7365 C   0  0
   -3.3680   -1.0681   -1.4333 C   0  0
    5.2160   -4.4789    2.7960 C   0  0
   -1.6255    0.1956   -0.3361 C   0  0
    4.1808   -2.3116    3.0570 C   0  0
    0.2932   -0.9161    0.5231 C   0  0
    2.0750   -1.8664    2.0455 C   0  0
    1.3499   -0.6110    1.5772 C   0  0  1  0  0  0
   -3.8058   -2.2540   -2.0804 N   0  3
    5.1177   -5.8577    2.4702 N   0  3
    2.3605    0.3116    0.9740 N   0  3
   -4.9901   -2.3217   -2.4890 O   0  5
    6.1478   -6.5715    2.5308 O   0  5
   -2.9960   -3.2012   -2.2260 O   0  0
    4.0034   -6.3241    2.1312 O   0  0
   -0.3366    0.2932    0.1180 O   0  0
    3.0696   -1.5123    2.9989 O   0  0
   -4.5073    1.9936   -0.4902 H   0  0
    7.4973   -2.1626    3.7919 H   0  0
   -5.2760   -0.0654   -1.6161 H   0  0
    7.3343   -4.5609    3.2266 H   0  0
   -2.1784    2.1722    0.3305 H   0  0
    5.4903   -0.7167    3.6881 H   0  0
   -1.3623   -1.7975   -1.1017 H   0  0
    3.1234   -4.0805    2.4401 H   0  0
   -0.4721   -1.6023    0.9019 H   0  0
    0.7557   -1.3640   -0.3626 H   0  0
    2.5783   -2.3528    1.2035 H   0  0
    1.3874   -2.5854    2.5040 H   0  0
    0.9255   -0.0554    2.4205 H   0  0
    3.2723    0.1757    1.4137 H   0  0
    2.0765    1.2839    1.1066 H   0  0
    2.4516    0.1324   -0.0275 H   0  0
  1  3  1  0
  1  5  2  0
  2  4  2  0
  2  6  1  0
  3  9  2  0
  4 10  1  0
  5 11  1  0
  6 12  2  0
  7  9  1  0
  7 11  2  0
  8 10  2  0
  8 12  1  0
  9 16  1  0
 10 17  1  0
 11 23  1  0
 12 24  1  0
 13 15  1  0
 13 23  1  0
 14 15  1  0
 14 24  1  0
 15 18  1  0
 16 19  1  0
 16 21  2  0
 17 20  1  0
 17 22  2  0
  1 25  1  0
  2 26  1  0
  3 27  1  0
  4 28  1  0
  5 29  1  0
  6 30  1  0
  7 31  1  0
  8 32  1  0
 13 33  1  0
 13 34  1  0
 14 35  1  0
 14 36  1  0
 15 37  1  0
 18 38  1  0
 18 39  1  0
 18 40  1  0
M  CHG  5  16   1  17   1  18   1  19  -1  20  -1
M  END
> <Name>
BR010533

$$$$
BR010534
  SciTegic05062102053D

 48 51  0  0  1  0            999 V2000
    1.5073   -6.1078   -1.7832 C   0  0
    8.3580    2.5699    5.1741 C   0  0
    2.2705   -5.6259   -0.7239 C   0  0
    8.0506    1.3253    4.6326 C   0  0
    2.8393   -2.2848   -4.4819 C   0  0
    4.0321    4.2661    3.7313 C   0  0
    1.4549   -5.4007   -2.9847 C   0  0
    7.4385    3.6156    5.0878 C   0  0
    2.9843   -4.4351   -0.8620 C   0  0
    6.8226    1.1216    4.0026 C   0  0
    2.1256   -3.4756   -4.3437 C   0  0
    5.2601    4.4698    4.3613 C   0  0
    3.6025   -1.8029   -3.4225 C   0  0
    3.7247    3.0215    3.1897 C   0  0
    2.1669   -4.2003   -3.1415 C   0  0
    6.1976    3.4285    4.4573 C   0  0
    2.9430   -3.7103   -2.0642 C   0  0
    5.8851    2.1628    3.9065 C   0  0
    3.6550   -2.5100   -2.2210 C   0  0
    4.6442    1.9757    3.2760 C   0  0
    4.0685   -0.7017   -0.7327 C   0  0
    4.0167    0.7551    1.3338 C   0  0
    4.3806   -0.6065    0.7554 C   0  0  2  0  0  0
    5.8502   -0.8144    0.9385 N   0  3
    4.4172   -1.9980   -1.2098 O   0  0
    4.2971    0.7688    2.7282 O   0  0
    0.9520   -7.0349   -1.6750 H   0  0
    9.3142    2.7278    5.6645 H   0  0
    2.3108   -6.1770    0.2112 H   0  0
    8.7670    0.5117    4.7002 H   0  0
    2.7989   -1.7339   -5.4171 H   0  0
    3.3159    5.0799    3.6638 H   0  0
    0.8518   -5.7961   -3.7994 H   0  0
    7.7000    4.5801    5.5182 H   0  0
    3.5708   -4.0866   -0.0147 H   0  0
    6.6141    0.1369    3.5901 H   0  0
    1.5357   -3.8335   -5.1850 H   0  0
    5.4791    5.4509    4.7776 H   0  0
    4.1554   -0.8745   -3.5384 H   0  0
    2.7660    2.8712    2.7006 H   0  0
    4.6197    0.0471   -1.3120 H   0  0
    2.9971   -0.5590   -0.9080 H   0  0
    2.9467    0.9499    1.2069 H   0  0
    4.5782    1.5637    0.8533 H   0  0
    3.9075   -1.4195    1.3166 H   0  0
    6.0261   -1.4125    1.7475 H   0  0
    6.3190    0.0810    1.0874 H   0  0
    6.2517   -1.2588    0.1111 H   0  0
  1  3  1  0
  1  7  2  0
  2  4  1  0
  2  8  2  0
  3  9  2  0
  4 10  2  0
  5 11  2  0
  5 13  1  0
  6 12  1  0
  6 14  2  0
  7 15  1  0
  8 16  1  0
  9 17  1  0
 10 18  1  0
 11 15  1  0
 12 16  2  0
 13 19  2  0
 14 20  1  0
 15 17  2  0
 16 18  1  0
 17 19  1  0
 18 20  2  0
 19 25  1  0
 20 26  1  0
 21 23  1  0
 21 25  1  0
 22 23  1  0
 22 26  1  0
 23 24  1  0
  1 27  1  0
  2 28  1  0
  3 29  1  0
  4 30  1  0
  5 31  1  0
  6 32  1  0
  7 33  1  0
  8 34  1  0
  9 35  1  0
 10 36  1  0
 11 37  1  0
 12 38  1  0
 13 39  1  0
 14 40  1  0
 21 41  1  0
 21 42  1  0
 22 43  1  0
 22 44  1  0
 23 45  1  0
 24 46  1  0
 24 47  1  0
 24 48  1  0
M  CHG  1  24   1
M  END
> <Name>
BR010534

$$$$
BR010535
  SciTegic05062102053D

 38 39  0  0  1  0            999 V2000
    0.6966    2.2972   -1.6081 C   0  0
    5.1137   -1.7783   -0.3605 C   0  0
   -1.6553    0.4584   -3.8236 C   0  0
    6.1472   -4.6760    1.7266 C   0  0
   -2.1468   -0.5161   -2.9550 C   0  0
    4.9442   -5.0107    2.3482 C   0  0
   -0.7156    1.3851   -3.3720 C   0  0
    6.1963   -3.6065    0.8324 C   0  0
   -1.6988   -0.5638   -1.6349 C   0  0
    3.7903   -4.2759    2.0756 C   0  0
   -0.2676    1.3375   -2.0519 C   0  0
    5.0424   -2.8718    0.5598 C   0  0
   -0.7592    0.3630   -1.1834 C   0  0
    3.8394   -3.2065    1.1814 C   0  0
    0.2932   -0.9161    0.5231 C   0  0
    2.0750   -1.8664    2.0455 C   0  0
    1.3499   -0.6110    1.5772 C   0  0  1  0  0  0
    1.4786    3.0755   -1.2483 N   0  0
    5.1714   -0.8915   -1.1068 N   0  0
    2.3605    0.3116    0.9740 N   0  3
   -0.3366    0.2932    0.1180 O   0  0
    2.6911   -2.5019    0.9321 O   0  0
   -2.0042    0.4953   -4.8514 H   0  0
    7.0456   -5.2483    1.9389 H   0  0
   -2.8784   -1.2377   -3.3067 H   0  0
    4.9061   -5.8434    3.0444 H   0  0
   -0.3424    2.1384   -4.0620 H   0  0
    7.1421   -3.3587    0.3563 H   0  0
   -2.0862   -1.3257   -0.9639 H   0  0
    2.8566   -4.5423    2.5636 H   0  0
   -0.4721   -1.6023    0.9019 H   0  0
    0.7557   -1.3640   -0.3626 H   0  0
    1.3653   -2.5758    2.4838 H   0  0
    2.8444   -1.6368    2.7907 H   0  0
    0.9255   -0.0554    2.4205 H   0  0
    3.2723    0.1757    1.4137 H   0  0
    2.0765    1.2839    1.1066 H   0  0
    2.4516    0.1324   -0.0275 H   0  0
  1 11  1  0
  1 18  3  0
  2 12  1  0
  2 19  3  0
  3  5  2  0
  3  7  1  0
  4  6  1  0
  4  8  2  0
  5  9  1  0
  6 10  2  0
  7 11  2  0
  8 12  1  0
  9 13  2  0
 10 14  1  0
 11 13  1  0
 12 14  2  0
 13 21  1  0
 14 22  1  0
 15 17  1  0
 15 21  1  0
 16 17  1  0
 16 22  1  0
 17 20  1  0
  3 23  1  0
  4 24  1  0
  5 25  1  0
  6 26  1  0
  7 27  1  0
  8 28  1  0
  9 29  1  0
 10 30  1  0
 15 31  1  0
 15 32  1  0
 16 33  1  0
 16 34  1  0
 17 35  1  0
 20 36  1  0
 20 37  1  0
 20 38  1  0
M  CHG  1  20   1
M  END
> <Name>
BR010535

$$$$
BR010536
  SciTegic05062102053D

 38 39  0  0  1  0            999 V2000
   -4.7263    2.2520   -0.4496 C   0  0
    7.7995   -2.0341    3.8841 C   0  0
   -3.3660   -1.0706   -1.4335 C   0  0
    5.2133   -4.4801    2.7949 C   0  0
   -4.2497   -0.0052   -1.2614 C   0  0
    6.4423   -3.9409    3.1746 C   0  0
   -2.0539   -0.9702   -0.9708 C   0  0
    4.0825   -3.6655    2.7361 C   0  0
   -2.5092    1.2611   -0.1640 C   0  0
    5.4099   -1.7724    3.4368 C   0  0
   -3.8213    1.1606   -0.6266 C   0  0
    6.5406   -2.5870    3.4956 C   0  0
   -1.6255    0.1956   -0.3361 C   0  0
    4.1808   -2.3116    3.0570 C   0  0
    0.2932   -0.9161    0.5231 C   0  0
    2.0750   -1.8664    2.0455 C   0  0
    1.3499   -0.6110    1.5772 C   0  0  1  0  0  0
   -5.4614    3.1384   -0.3058 N   0  0
    8.8221   -1.5850    4.1997 N   0  0
    2.3605    0.3116    0.9740 N   0  3
   -0.3366    0.2932    0.1180 O   0  0
    3.0696   -1.5123    2.9989 O   0  0
   -3.6993   -1.9782   -1.9281 H   0  0
    5.1365   -5.5344    2.5454 H   0  0
   -5.2694   -0.0988   -1.6274 H   0  0
    7.3147   -4.5888    3.2156 H   0  0
   -1.3701   -1.8035   -1.1076 H   0  0
    3.1277   -4.0912    2.4394 H   0  0
   -2.1661    2.1671    0.3315 H   0  0
    5.4771   -0.7154    3.6863 H   0  0
   -0.4721   -1.6023    0.9019 H   0  0
    0.7557   -1.3640   -0.3626 H   0  0
    2.5783   -2.3528    1.2035 H   0  0
    1.3874   -2.5854    2.5040 H   0  0
    0.9255   -0.0554    2.4205 H   0  0
    3.2723    0.1757    1.4137 H   0  0
    2.0765    1.2839    1.1066 H   0  0
    2.4516    0.1324   -0.0275 H   0  0
  1 11  1  0
  1 18  3  0
  2 12  1  0
  2 19  3  0
  3  5  2  0
  3  7  1  0
  4  6  1  0
  4  8  2  0
  5 11  1  0
  6 12  2  0
  7 13  2  0
  8 14  1  0
  9 11  2  0
  9 13  1  0
 10 12  1  0
 10 14  2  0
 13 21  1  0
 14 22  1  0
 15 17  1  0
 15 21  1  0
 16 17  1  0
 16 22  1  0
 17 20  1  0
  3 23  1  0
  4 24  1  0
  5 25  1  0
  6 26  1  0
  7 27  1  0
  8 28  1  0
  9 29  1  0
 10 30  1  0
 15 31  1  0
 15 32  1  0
 16 33  1  0
 16 34  1  0
 17 35  1  0
 20 36  1  0
 20 37  1  0
 20 38  1  0
M  CHG  1  20   1
M  END
> <Name>
BR010536

$$$$
BR010537
  SciTegic05062102053D

 38 39  0  0  0  0            999 V2000
   -3.8132   -4.9970   -2.1045 C   0  0
    8.8883    0.5440    0.5880 C   0  0
   -2.4021   -3.0172   -1.8369 C   0  0
   -2.9395   -4.3699    0.0913 C   0  0
    6.5283    0.8548    0.0253 C   0  0
    7.1402    0.1204    2.2442 C   0  0
   -1.6530   -2.1623   -1.0285 C   0  0
   -2.1904   -3.5150    0.8998 C   0  0
    5.1810    0.8173    0.3844 C   0  0
    5.7928    0.0829    2.6033 C   0  0
   -3.0453   -4.1210   -1.2770 C   0  0
    7.5079    0.5063    0.9552 C   0  0
   -1.5472   -2.4112    0.3399 C   0  0
    4.8133    0.4313    1.6734 C   0  0
    0.2932   -0.9161    0.5231 C   0  0
    2.5589    0.1059    0.9896 C   0  0
    1.3499   -0.6110    1.5772 C   0  0
   -4.4368   -5.7086   -2.7765 N   0  0
   10.0094    0.5747    0.2898 N   0  0
    1.8138   -1.9068    2.1622 N   0  3
   -0.8118   -1.5711    1.1340 O   0  0
    3.4898    0.3941    2.0258 O   0  0
   -2.4756   -2.8100   -2.9019 H   0  0
   -3.4350   -5.2263    0.5427 H   0  0
    6.7995    1.1574   -0.9833 H   0  0
    7.8921   -0.1542    2.9803 H   0  0
   -1.1545   -1.3036   -1.4699 H   0  0
   -2.1122   -3.7144    1.9652 H   0  0
    4.4222    1.0893   -0.3442 H   0  0
    5.5130   -0.2190    3.6090 H   0  0
    0.6870   -1.5576   -0.2728 H   0  0
   -0.0761    0.0112    0.0731 H   0  0
    2.2566    1.0570    0.5389 H   0  0
    3.0582   -0.4995    0.2254 H   0  0
    0.9255   -0.0554    2.4205 H   0  0
    1.2398   -2.1579    2.9688 H   0  0
    2.7863   -1.8308    2.4655 H   0  0
    1.7460   -2.6538    1.4688 H   0  0
  1 11  1  0
  1 18  3  0
  2 12  1  0
  2 19  3  0
  3  7  2  0
  3 11  1  0
  4  8  1  0
  4 11  2  0
  5  9  2  0
  5 12  1  0
  6 10  1  0
  6 12  2  0
  7 13  1  0
  8 13  2  0
  9 14  1  0
 10 14  2  0
 13 21  1  0
 14 22  1  0
 15 17  1  0
 15 21  1  0
 16 17  1  0
 16 22  1  0
 17 20  1  0
  3 23  1  0
  4 24  1  0
  5 25  1  0
  6 26  1  0
  7 27  1  0
  8 28  1  0
  9 29  1  0
 10 30  1  0
 15 31  1  0
 15 32  1  0
 16 33  1  0
 16 34  1  0
 17 35  1  0
 20 36  1  0
 20 37  1  0
 20 38  1  0
M  CHG  1  20   1
M  END
> <Name>
BR010537

$$$$
BR010538
  SciTegic05062102053D

 40 41  0  0  1  0            999 V2000
   -2.6549   -4.2511   -1.6494 C   0  0
    3.0969   -6.6345    1.1771 C   0  0
   -2.1889   -2.9963   -2.0417 C   0  0
    3.1119   -5.8549    2.3336 C   0  0
   -2.4605   -4.6891   -0.3394 C   0  0
    2.9459   -6.0289   -0.0703 C   0  0
   -1.5285   -2.1794   -1.1240 C   0  0
    2.9759   -4.4696    2.2428 C   0  0
   -1.8001   -3.8722    0.5783 C   0  0
    2.8098   -4.6436   -0.1612 C   0  0
   -1.3341   -2.6173    0.1860 C   0  0
    2.8248   -3.8640    0.9953 C   0  0
    0.2932   -0.9161    0.5231 C   0  0
    2.0750   -1.8664    2.0455 C   0  0
    1.3499   -0.6110    1.5772 C   0  0  1  0  0  0
   -1.6107   -4.3345    1.9096 N   0  3
    2.6570   -4.0430   -1.4411 N   0  3
    2.3605    0.3116    0.9740 N   0  3
   -0.5709   -4.9786    2.1853 O   0  5
    1.5020   -3.8882   -1.9037 O   0  5
   -2.4890   -4.0841    2.7686 O   0  0
    3.6816   -3.6856   -2.0689 O   0  0
   -0.6809   -1.7976    1.0684 O   0  0
    2.6911   -2.5019    0.9321 O   0  0
   -3.1690   -4.8874   -2.3641 H   0  0
    3.2025   -7.7132    1.2479 H   0  0
   -2.3404   -2.6552   -3.0617 H   0  0
    3.2297   -6.3264    3.3050 H   0  0
   -2.8293   -5.6695   -0.0476 H   0  0
    2.9361   -6.6492   -0.9634 H   0  0
   -1.1681   -1.2027   -1.4364 H   0  0
    2.9886   -3.8681    3.1480 H   0  0
    0.7303   -1.3812   -0.3673 H   0  0
   -0.2205    0.0022    0.2204 H   0  0
    1.3653   -2.5758    2.4838 H   0  0
    2.8444   -1.6368    2.7907 H   0  0
    0.9255   -0.0554    2.4205 H   0  0
    3.2723    0.1757    1.4137 H   0  0
    2.0765    1.2839    1.1066 H   0  0
    2.4516    0.1324   -0.0275 H   0  0
  1  3  2  0
  1  5  1  0
  2  4  1  0
  2  6  2  0
  3  7  1  0
  4  8  2  0
  5  9  2  0
  6 10  1  0
  7 11  2  0
  8 12  1  0
  9 11  1  0
  9 16  1  0
 10 12  2  0
 10 17  1  0
 11 23  1  0
 12 24  1  0
 13 15  1  0
 13 23  1  0
 14 15  1  0
 14 24  1  0
 15 18  1  0
 16 19  1  0
 16 21  2  0
 17 20  1  0
 17 22  2  0
  1 25  1  0
  2 26  1  0
  3 27  1  0
  4 28  1  0
  5 29  1  0
  6 30  1  0
  7 31  1  0
  8 32  1  0
 13 33  1  0
 13 34  1  0
 14 35  1  0
 14 36  1  0
 15 37  1  0
 18 38  1  0
 18 39  1  0
 18 40  1  0
M  CHG  5  16   1  17   1  18   1  19  -1  20  -1
M  END
> <Name>
BR010538

$$$$
BR010539
  SciTegic05062102053D

 40 41  0  0  0  0            999 V2000
   -2.4016   -3.0177   -1.8370 C   0  0
   -2.9384   -4.3707    0.0913 C   0  0
    6.5285    0.8553    0.0257 C   0  0
    7.1402    0.1215    2.2448 C   0  0
   -1.6531   -2.1624   -1.0285 C   0  0
   -2.1898   -3.5154    0.8999 C   0  0
    5.1811    0.8172    0.3844 C   0  0
    5.7928    0.0835    2.6036 C   0  0
   -3.0444   -4.1219   -1.2770 C   0  0
    7.5080    0.5074    0.9558 C   0  0
   -1.5472   -2.4112    0.3399 C   0  0
    4.8133    0.4313    1.6734 C   0  0
    0.2932   -0.9161    0.5231 C   0  0
    2.5589    0.1059    0.9896 C   0  0
    1.3499   -0.6110    1.5772 C   0  0
   -3.8066   -4.9926   -2.0998 N   0  3
    8.8797    0.5458    0.5908 N   0  3
    1.8138   -1.9068    2.1622 N   0  3
   -3.8894   -4.7510   -3.3283 O   0  5
    9.1895    0.8956   -0.5738 O   0  5
   -4.3764   -5.9802   -1.5759 O   0  0
    9.7447    0.2293    1.4429 O   0  0
   -0.8118   -1.5711    1.1340 O   0  0
    3.4898    0.3941    2.0258 O   0  0
   -2.4758   -2.8125   -2.9021 H   0  0
   -3.4346   -5.2273    0.5410 H   0  0
    6.8016    1.1582   -0.9822 H   0  0
    7.8932   -0.1527    2.9795 H   0  0
   -1.1544   -1.3040   -1.4704 H   0  0
   -2.1113   -3.7142    1.9652 H   0  0
    4.4226    1.0897   -0.3444 H   0  0
    5.5124   -0.2184    3.6091 H   0  0
    0.6870   -1.5576   -0.2728 H   0  0
   -0.0761    0.0112    0.0731 H   0  0
    2.2566    1.0570    0.5389 H   0  0
    3.0582   -0.4995    0.2254 H   0  0
    0.9255   -0.0554    2.4205 H   0  0
    1.2398   -2.1579    2.9688 H   0  0
    2.7863   -1.8308    2.4655 H   0  0
    1.7460   -2.6538    1.4688 H   0  0
  1  5  2  0
  1  9  1  0
  2  6  1  0
  2  9  2  0
  3  7  2  0
  3 10  1  0
  4  8  1  0
  4 10  2  0
  5 11  1  0
  6 11  2  0
  7 12  1  0
  8 12  2  0
  9 16  1  0
 10 17  1  0
 11 23  1  0
 12 24  1  0
 13 15  1  0
 13 23  1  0
 14 15  1  0
 14 24  1  0
 15 18  1  0
 16 19  1  0
 16 21  2  0
 17 20  1  0
 17 22  2  0
  1 25  1  0
  2 26  1  0
  3 27  1  0
  4 28  1  0
  5 29  1  0
  6 30  1  0
  7 31  1  0
  8 32  1  0
 13 33  1  0
 13 34  1  0
 14 35  1  0
 14 36  1  0
 15 37  1  0
 18 38  1  0
 18 39  1  0
 18 40  1  0
M  CHG  5  16   1  17   1  18   1  19  -1  20  -1
M  END
> <Name>
BR010539

$$$$
BR010540
  SciTegic05062102053D

 48 49  0  0  1  0            999 V2000
   -1.6421    0.4695   -3.8276 C   0  0
    6.1570   -4.6635    1.7188 C   0  0
   -2.1401   -0.5069   -2.9648 C   0  0
    4.9575   -5.0058    2.3430 C   0  0
   -0.7026    1.3926   -3.3682 C   0  0
    6.1977   -3.5926    0.8259 C   0  0
   -1.6987   -0.5601   -1.6427 C   0  0
    3.7988   -4.2774    2.0744 C   0  0
   -0.2612    1.3394   -2.0461 C   0  0
    5.0389   -2.8641    0.5572 C   0  0
   -0.7592    0.3630   -1.1834 C   0  0
    3.8394   -3.2065    1.1814 C   0  0
    0.7200    2.3126   -1.5870 C   0  0
    5.1034   -1.7499   -0.3783 C   0  0
    2.5545    3.6711   -2.2756 C   0  0
    6.5255   -0.0471   -1.2515 C   0  0
    0.2932   -0.9161    0.5231 C   0  0
    2.0750   -1.8664    2.0455 C   0  0
    1.3499   -0.6110    1.5772 C   0  0  1  0  0  0
    2.3605    0.3116    0.9740 N   0  3
    0.8017    2.7265   -0.4241 O   0  0
    4.1617   -1.3806   -1.0904 O   0  0
   -0.3366    0.2932    0.1180 O   0  0
    2.6911   -2.5019    0.9321 O   0  0
    1.5428    2.7125   -2.6034 O   0  0
    6.3371   -1.1600   -0.3709 O   0  0
   -1.9860    0.5107   -4.8572 H   0  0
    7.0593   -5.2310    1.9282 H   0  0
   -2.8719   -1.2249   -3.3230 H   0  0
    4.9264   -5.8400    3.0377 H   0  0
   -0.3211    2.1488   -4.0497 H   0  0
    7.1381   -3.3346    0.3456 H   0  0
   -2.0905   -1.3233   -0.9759 H   0  0
    2.8676   -4.5492    2.5642 H   0  0
    3.1392    3.9047   -3.1686 H   0  0
    3.2049    3.2639   -1.4973 H   0  0
    2.0756    4.5816   -1.9079 H   0  0
    7.5461    0.3301   -1.1500 H   0  0
    5.8085    0.7398   -1.0043 H   0  0
    6.3619   -0.3763   -2.2804 H   0  0
   -0.4721   -1.6023    0.9019 H   0  0
    0.7557   -1.3640   -0.3626 H   0  0
    1.3653   -2.5758    2.4838 H   0  0
    2.8444   -1.6368    2.7907 H   0  0
    0.9255   -0.0554    2.4205 H   0  0
    3.2723    0.1757    1.4137 H   0  0
    2.0765    1.2839    1.1066 H   0  0
    2.4516    0.1324   -0.0275 H   0  0
  1  3  2  0
  1  5  1  0
  2  4  1  0
  2  6  2  0
  3  7  1  0
  4  8  2  0
  5  9  2  0
  6 10  1  0
  7 11  2  0
  8 12  1  0
  9 11  1  0
  9 13  1  0
 10 12  2  0
 10 14  1  0
 11 23  1  0
 12 24  1  0
 13 21  2  0
 13 25  1  0
 14 22  2  0
 14 26  1  0
 15 25  1  0
 16 26  1  0
 17 19  1  0
 17 23  1  0
 18 19  1  0
 18 24  1  0
 19 20  1  0
  1 27  1  0
  2 28  1  0
  3 29  1  0
  4 30  1  0
  5 31  1  0
  6 32  1  0
  7 33  1  0
  8 34  1  0
 15 35  1  0
 15 36  1  0
 15 37  1  0
 16 38  1  0
 16 39  1  0
 16 40  1  0
 17 41  1  0
 17 42  1  0
 18 43  1  0
 18 44  1  0
 19 45  1  0
 20 46  1  0
 20 47  1  0
 20 48  1  0
M  CHG  1  20   1
M  END
> <Name>
BR010540

$$$$
BR010541
  SciTegic05062102053D

 48 49  0  0  1  0            999 V2000
   -1.9897   -3.2575   -2.0378 C   0  0
    6.5407   -2.5857    3.4961 C   0  0
   -1.3628   -4.3160   -2.6953 C   0  0
    6.4431   -3.9397    3.1755 C   0  0
   -1.2280   -2.3230   -1.3362 C   0  0
    5.4095   -1.7717    3.4370 C   0  0
    0.7876   -3.5056   -1.9494 C   0  0
    4.0832   -3.6656    2.7363 C   0  0
    0.0258   -4.4400   -2.6511 C   0  0
    5.2144   -4.4796    2.7956 C   0  0
    0.1607   -2.4471   -1.2920 C   0  0
    4.1808   -2.3116    3.0570 C   0  0
    0.6801   -5.5434   -3.3367 C   0  0
    5.1121   -5.8915    2.4614 C   0  0
    2.5777   -6.9886   -3.2914 C   0  0
    3.9291   -7.4769    1.1277 C   0  0
    0.2932   -0.9161    0.5231 C   0  0
    2.0750   -1.8664    2.0455 C   0  0
    1.3499   -0.6110    1.5772 C   0  0  1  0  0  0
    2.3605    0.3116    0.9740 N   0  3
    0.2469   -6.0862   -4.3617 O   0  0
    5.8232   -6.7798    2.9494 O   0  0
    0.9091   -1.5294   -0.6030 O   0  0
    3.0696   -1.5123    2.9989 O   0  0
    1.8390   -5.9096   -2.7085 O   0  0
    4.1286   -6.1199    1.5381 O   0  0
   -3.0709   -3.1611   -2.0723 H   0  0
    7.4974   -2.1655    3.7919 H   0  0
   -1.9656   -5.0379   -3.2399 H   0  0
    7.3305   -4.5653    3.2259 H   0  0
   -1.7221   -1.5007   -0.8261 H   0  0
    5.4919   -0.7177    3.6879 H   0  0
    1.8708   -3.5973   -1.9124 H   0  0
    3.1226   -4.0818    2.4413 H   0  0
    3.4749   -7.1796   -2.6977 H   0  0
    2.8545   -6.7299   -4.3166 H   0  0
    1.9517   -7.8841   -3.3001 H   0  0
    3.1209   -7.5212    0.3935 H   0  0
    3.6790   -8.0887    1.9981 H   0  0
    4.8505   -7.8504    0.6748 H   0  0
   -0.2235   -0.0089    0.1915 H   0  0
   -0.4500   -1.6161    0.9188 H   0  0
    2.5783   -2.3528    1.2035 H   0  0
    1.3874   -2.5854    2.5040 H   0  0
    0.9255   -0.0554    2.4205 H   0  0
    3.2723    0.1757    1.4137 H   0  0
    2.0765    1.2839    1.1066 H   0  0
    2.4516    0.1324   -0.0275 H   0  0
  1  3  2  0
  1  5  1  0
  2  4  1  0
  2  6  2  0
  3  9  1  0
  4 10  2  0
  5 11  2  0
  6 12  1  0
  7  9  2  0
  7 11  1  0
  8 10  1  0
  8 12  2  0
  9 13  1  0
 10 14  1  0
 11 23  1  0
 12 24  1  0
 13 21  2  0
 13 25  1  0
 14 22  2  0
 14 26  1  0
 15 25  1  0
 16 26  1  0
 17 19  1  0
 17 23  1  0
 18 19  1  0
 18 24  1  0
 19 20  1  0
  1 27  1  0
  2 28  1  0
  3 29  1  0
  4 30  1  0
  5 31  1  0
  6 32  1  0
  7 33  1  0
  8 34  1  0
 15 35  1  0
 15 36  1  0
 15 37  1  0
 16 38  1  0
 16 39  1  0
 16 40  1  0
 17 41  1  0
 17 42  1  0
 18 43  1  0
 18 44  1  0
 19 45  1  0
 20 46  1  0
 20 47  1  0
 20 48  1  0
M  CHG  1  20   1
M  END
> <Name>
BR010541

$$$$
BR010542
  SciTegic05062102053D

 48 49  0  0  0  0            999 V2000
   -2.4022   -3.0181   -1.8366 C   0  0
   -2.9388   -4.3705    0.0921 C   0  0
    6.5289    0.8549    0.0260 C   0  0
    7.1400    0.1208    2.2452 C   0  0
   -1.6533   -2.1627   -1.0285 C   0  0
   -2.1899   -3.5151    0.9002 C   0  0
    5.1815    0.8172    0.3845 C   0  0
    5.7925    0.0831    2.6038 C   0  0
   -3.0450   -4.1220   -1.2763 C   0  0
    7.5082    0.5066    0.9564 C   0  0
   -1.5472   -2.4112    0.3399 C   0  0
    4.8133    0.4313    1.6734 C   0  0
   -3.8257   -5.0140   -2.1188 C   0  0
    8.9132    0.5460    0.5828 C   0  0
   -5.1708   -6.9845   -2.1152 C   0  0
   11.1316    0.1740    1.3782 C   0  0
    0.2932   -0.9161    0.5231 C   0  0
    2.5589    0.1059    0.9896 C   0  0
    1.3499   -0.6110    1.5772 C   0  0
    1.8138   -1.9068    2.1622 N   0  3
   -3.9748   -4.8721   -3.3398 O   0  0
    9.3316    0.8754   -0.5350 O   0  0
   -0.8118   -1.5711    1.1340 O   0  0
    3.4898    0.3941    2.0258 O   0  0
   -4.3774   -6.0354   -1.3946 O   0  0
    9.7209    0.1741    1.6226 O   0  0
   -2.4775   -2.8145   -2.9018 H   0  0
   -3.4357   -5.2281    0.5384 H   0  0
    6.8040    1.1574   -0.9811 H   0  0
    7.8954   -0.1522    2.9776 H   0  0
   -1.1551   -1.3044   -1.4709 H   0  0
   -2.1111   -3.7136    1.9657 H   0  0
    4.4234    1.0895   -0.3447 H   0  0
    5.5117   -0.2186    3.6092 H   0  0
   -5.5495   -7.7426   -1.4253 H   0  0
   -4.5622   -7.4548   -2.8917 H   0  0
   -6.0123   -6.4648   -2.5795 H   0  0
   11.6588   -0.1399    2.2824 H   0  0
   11.4518    1.1774    1.0865 H   0  0
   11.3520   -0.5263    0.5690 H   0  0
    0.6870   -1.5576   -0.2728 H   0  0
   -0.0761    0.0112    0.0731 H   0  0
    2.2566    1.0570    0.5389 H   0  0
    3.0582   -0.4995    0.2254 H   0  0
    0.9255   -0.0554    2.4205 H   0  0
    1.2398   -2.1579    2.9688 H   0  0
    2.7863   -1.8308    2.4655 H   0  0
    1.7460   -2.6538    1.4688 H   0  0
  1  5  2  0
  1  9  1  0
  2  6  1  0
  2  9  2  0
  3  7  2  0
  3 10  1  0
  4  8  1  0
  4 10  2  0
  5 11  1  0
  6 11  2  0
  7 12  1  0
  8 12  2  0
  9 13  1  0
 10 14  1  0
 11 23  1  0
 12 24  1  0
 13 21  2  0
 13 25  1  0
 14 22  2  0
 14 26  1  0
 15 25  1  0
 16 26  1  0
 17 19  1  0
 17 23  1  0
 18 19  1  0
 18 24  1  0
 19 20  1  0
  1 27  1  0
  2 28  1  0
  3 29  1  0
  4 30  1  0
  5 31  1  0
  6 32  1  0
  7 33  1  0
  8 34  1  0
 15 35  1  0
 15 36  1  0
 15 37  1  0
 16 38  1  0
 16 39  1  0
 16 40  1  0
 17 41  1  0
 17 42  1  0
 18 43  1  0
 18 44  1  0
 19 45  1  0
 20 46  1  0
 20 47  1  0
 20 48  1  0
M  CHG  1  20   1
M  END
> <Name>
BR010542

$$$$
BR010543
  SciTegic05062102053D

 44 45  0  0  1  0            999 V2000
   -1.3805   -4.2961   -2.7022 C   0  0
    6.4275   -3.9608    3.1791 C   0  0
   -1.8157   -2.9769   -2.5766 C   0  0
    5.1601   -4.4898    3.4227 C   0  0
   -0.1747   -4.6909   -2.1226 C   0  0
    6.5717   -2.6073    2.8745 C   0  0
   -1.0452   -2.0524   -1.8715 C   0  0
    4.0367   -3.6652    3.3617 C   0  0
    0.5959   -3.7664   -1.4175 C   0  0
    5.4483   -1.7827    2.8134 C   0  0
    0.1607   -2.4471   -1.2920 C   0  0
    4.1808   -2.3116    3.0570 C   0  0
    2.9446   -4.0492   -1.6611 C   0  0
    6.9313   -0.0021    2.2785 C   0  0
    0.2932   -0.9161    0.5231 C   0  0
    2.0750   -1.8664    2.0455 C   0  0
    1.3499   -0.6110    1.5772 C   0  0  1  0  0  0
    2.3605    0.3116    0.9740 N   0  3
    1.7721   -4.1640   -0.8571 O   0  0
    5.6021   -0.4627    2.5137 O   0  0
    0.9091   -1.5294   -0.6030 O   0  0
    3.0696   -1.5123    2.9989 O   0  0
   -1.9807   -5.0162   -3.2512 H   0  0
    7.3025   -4.6030    3.2268 H   0  0
   -2.7543   -2.6696   -3.0279 H   0  0
    5.0479   -5.5435    3.6598 H   0  0
    0.1587   -5.7202   -2.2239 H   0  0
    7.5619   -2.2014    2.6859 H   0  0
   -1.3893   -1.0259   -1.7790 H   0  0
    3.0522   -4.0841    3.5509 H   0  0
    3.8112   -4.3996   -1.0950 H   0  0
    3.0854   -3.0059   -1.9547 H   0  0
    2.8237   -4.6643   -2.5559 H   0  0
    6.9124    1.0664    2.0506 H   0  0
    7.3674   -0.5561    1.4433 H   0  0
    7.5300   -0.1703    3.1768 H   0  0
   -0.2235   -0.0089    0.1915 H   0  0
   -0.4500   -1.6161    0.9188 H   0  0
    2.5783   -2.3528    1.2035 H   0  0
    1.3874   -2.5854    2.5040 H   0  0
    0.9255   -0.0554    2.4205 H   0  0
    3.2723    0.1757    1.4137 H   0  0
    2.0765    1.2839    1.1066 H   0  0
    2.4516    0.1324   -0.0275 H   0  0
  1  3  2  0
  1  5  1  0
  2  4  1  0
  2  6  2  0
  3  7  1  0
  4  8  2  0
  5  9  2  0
  6 10  1  0
  7 11  2  0
  8 12  1  0
  9 11  1  0
  9 19  1  0
 10 12  2  0
 10 20  1  0
 11 21  1  0
 12 22  1  0
 13 19  1  0
 14 20  1  0
 15 17  1  0
 15 21  1  0
 16 17  1  0
 16 22  1  0
 17 18  1  0
  1 23  1  0
  2 24  1  0
  3 25  1  0
  4 26  1  0
  5 27  1  0
  6 28  1  0
  7 29  1  0
  8 30  1  0
 13 31  1  0
 13 32  1  0
 13 33  1  0
 14 34  1  0
 14 35  1  0
 14 36  1  0
 15 37  1  0
 15 38  1  0
 16 39  1  0
 16 40  1  0
 17 41  1  0
 18 42  1  0
 18 43  1  0
 18 44  1  0
M  CHG  1  18   1
M  END
> <Name>
BR010543

$$$$
BR010544
  SciTegic05062102053D

 44 45  0  0  1  0            999 V2000
   -3.8198    1.1637   -0.6276 C   0  0
    6.5403   -2.5850    3.4985 C   0  0
   -4.2489   -0.0006   -1.2646 C   0  0
    6.4430   -3.9395    3.1801 C   0  0
   -2.5081    1.2619   -0.1634 C   0  0
    5.4092   -1.7710    3.4370 C   0  0
   -2.0546   -0.9688   -0.9731 C   0  0
    4.0835   -3.6662    2.7385 C   0  0
   -3.3664   -1.0668   -1.4373 C   0  0
    5.2146   -4.4801    2.8001 C   0  0
   -1.6255    0.1956   -0.3361 C   0  0
    4.1808   -2.3116    3.0570 C   0  0
   -2.8320   -3.2549   -2.2006 C   0  0
    3.8344   -6.2885    2.1071 C   0  0
    0.2932   -0.9161    0.5231 C   0  0
    2.0750   -1.8664    2.0455 C   0  0
    1.3499   -0.6110    1.5772 C   0  0  1  0  0  0
    2.3605    0.3116    0.9740 N   0  3
   -3.7859   -2.2036   -2.0571 O   0  0
    5.1204   -5.8014    2.4875 O   0  0
   -0.3366    0.2932    0.1180 O   0  0
    3.0696   -1.5123    2.9989 O   0  0
   -4.5070    1.9940   -0.4932 H   0  0
    7.4968   -2.1641    3.7945 H   0  0
   -5.2719   -0.0715   -1.6238 H   0  0
    7.3276   -4.5686    3.2294 H   0  0
   -2.1789    2.1718    0.3310 H   0  0
    5.4906   -0.7169    3.6874 H   0  0
   -1.3670   -1.7999   -1.1074 H   0  0
    3.1262   -4.0875    2.4421 H   0  0
   -3.2964   -4.1021   -2.7111 H   0  0
   -2.4750   -3.5613   -1.2141 H   0  0
   -1.9896   -2.8920   -2.7942 H   0  0
    3.8997   -7.3564    1.8844 H   0  0
    3.4825   -5.7430    1.2279 H   0  0
    3.1367   -6.1330    2.9334 H   0  0
   -0.4721   -1.6023    0.9019 H   0  0
    0.7557   -1.3640   -0.3626 H   0  0
    2.5783   -2.3528    1.2035 H   0  0
    1.3874   -2.5854    2.5040 H   0  0
    0.9255   -0.0554    2.4205 H   0  0
    3.2723    0.1757    1.4137 H   0  0
    2.0765    1.2839    1.1066 H   0  0
    2.4516    0.1324   -0.0275 H   0  0
  1  3  2  0
  1  5  1  0
  2  4  1  0
  2  6  2  0
  3  9  1  0
  4 10  2  0
  5 11  2  0
  6 12  1  0
  7  9  2  0
  7 11  1  0
  8 10  1  0
  8 12  2  0
  9 19  1  0
 10 20  1  0
 11 21  1  0
 12 22  1  0
 13 19  1  0
 14 20  1  0
 15 17  1  0
 15 21  1  0
 16 17  1  0
 16 22  1  0
 17 18  1  0
  1 23  1  0
  2 24  1  0
  3 25  1  0
  4 26  1  0
  5 27  1  0
  6 28  1  0
  7 29  1  0
  8 30  1  0
 13 31  1  0
 13 32  1  0
 13 33  1  0
 14 34  1  0
 14 35  1  0
 14 36  1  0
 15 37  1  0
 15 38  1  0
 16 39  1  0
 16 40  1  0
 17 41  1  0
 18 42  1  0
 18 43  1  0
 18 44  1  0
M  CHG  1  18   1
M  END
> <Name>
BR010544

$$$$
BR010545
  SciTegic05062102053D

 44 45  0  0  0  0            999 V2000
   -2.9383   -4.3707    0.0915 C   0  0
   -2.4015   -3.0181   -1.8370 C   0  0
    6.5285    0.8550    0.0256 C   0  0
    7.1402    0.1209    2.2446 C   0  0
   -2.1898   -3.5153    0.8999 C   0  0
   -1.6530   -2.1626   -1.0286 C   0  0
    5.1811    0.8172    0.3844 C   0  0
    5.7928    0.0832    2.6035 C   0  0
   -3.0441   -4.1222   -1.2770 C   0  0
    7.5080    0.5068    0.9556 C   0  0
   -1.5472   -2.4112    0.3399 C   0  0
    4.8133    0.4313    1.6734 C   0  0
   -4.4026   -6.0682   -1.4291 C   0  0
    9.1285    0.9441   -0.7292 C   0  0
    0.2932   -0.9161    0.5231 C   0  0
    2.5589    0.1059    0.9896 C   0  0
    1.3499   -0.6110    1.5772 C   0  0
    1.8138   -1.9068    2.1622 N   0  3
   -3.7730   -4.9576   -2.0663 O   0  0
    8.8226    0.5420    0.6052 O   0  0
   -0.8118   -1.5711    1.1340 O   0  0
    3.4898    0.3941    2.0258 O   0  0
   -3.4347   -5.2305    0.5331 H   0  0
   -2.4798   -2.8201   -2.9026 H   0  0
    6.8088    1.1541   -0.9807 H   0  0
    7.8990   -0.1521    2.9729 H   0  0
   -2.1120   -3.7131    1.9655 H   0  0
   -1.1543   -1.3042   -1.4704 H   0  0
    4.4225    1.0908   -0.3438 H   0  0
    5.5121   -0.2185    3.6089 H   0  0
   -4.9509   -6.6526   -2.1720 H   0  0
   -5.0866   -5.7068   -0.6570 H   0  0
   -3.6357   -6.6957   -0.9689 H   0  0
   10.2113    0.9285   -0.8760 H   0  0
    8.7406    1.9505   -0.9054 H   0  0
    8.6584    0.2472   -1.4270 H   0  0
    0.6870   -1.5576   -0.2728 H   0  0
   -0.0761    0.0112    0.0731 H   0  0
    2.2566    1.0570    0.5389 H   0  0
    3.0582   -0.4995    0.2254 H   0  0
    0.9255   -0.0554    2.4205 H   0  0
    1.2398   -2.1579    2.9688 H   0  0
    2.7863   -1.8308    2.4655 H   0  0
    1.7460   -2.6538    1.4688 H   0  0
  1  5  2  0
  1  9  1  0
  2  6  1  0
  2  9  2  0
  3  7  2  0
  3 10  1  0
  4  8  1  0
  4 10  2  0
  5 11  1  0
  6 11  2  0
  7 12  1  0
  8 12  2  0
  9 19  1  0
 10 20  1  0
 11 21  1  0
 12 22  1  0
 13 19  1  0
 14 20  1  0
 15 17  1  0
 15 21  1  0
 16 17  1  0
 16 22  1  0
 17 18  1  0
  1 23  1  0
  2 24  1  0
  3 25  1  0
  4 26  1  0
  5 27  1  0
  6 28  1  0
  7 29  1  0
  8 30  1  0
 13 31  1  0
 13 32  1  0
 13 33  1  0
 14 34  1  0
 14 35  1  0
 14 36  1  0
 15 37  1  0
 15 38  1  0
 16 39  1  0
 16 40  1  0
 17 41  1  0
 18 42  1  0
 18 43  1  0
 18 44  1  0
M  CHG  1  18   1
M  END
> <Name>
BR010545

$$$$
BR010546
  SciTegic05062102053D

 42 43  0  0  1  0            999 V2000
   -4.2391   -0.0265   -1.2861 C   0  0
    3.9763   -4.3666    5.8858 C   0  0
   -3.2041   -0.7082   -1.9261 C   0  0
    4.1508   -4.6560    4.5326 C   0  0
   -3.9673    0.7663   -0.1711 C   0  0
    3.4958   -3.1163    6.2753 C   0  0
   -1.8973   -0.5972   -1.4511 C   0  0
    3.8449   -3.6952    3.5687 C   0  0
   -2.6605    0.8774    0.3039 C   0  0
    3.1899   -2.1555    5.3115 C   0  0
   -1.6255    0.1956   -0.3361 C   0  0
    3.3644   -2.4450    3.9582 C   0  0
   -2.3883    1.7301    1.4987 C   0  0
    2.6770   -0.8227    5.7467 C   0  0
    0.2932   -0.9161    0.5231 C   0  0
    2.0750   -1.8664    2.0455 C   0  0
    1.3499   -0.6110    1.5772 C   0  0  1  0  0  0
    2.3605    0.3116    0.9740 N   0  3
   -0.3366    0.2932    0.1180 O   0  0
    3.0696   -1.5123    2.9989 O   0  0
   -5.2570   -0.1131   -1.6553 H   0  0
    4.2149   -5.1143    6.6368 H   0  0
   -3.4163   -1.3261   -2.7937 H   0  0
    4.5258   -5.6292    4.2298 H   0  0
   -4.7809    1.2923    0.3214 H   0  0
    3.3647   -2.9001    7.3323 H   0  0
   -1.0952   -1.1307   -1.9539 H   0  0
    3.9831   -3.9265    2.5161 H   0  0
   -2.4731    1.1368    2.4168 H   0  0
   -1.3817    2.1644    1.4554 H   0  0
   -3.0946    2.5678    1.5577 H   0  0
    3.5101   -0.1280    5.9057 H   0  0
    2.0022   -0.3927    4.9961 H   0  0
    2.1059   -0.9027    6.6803 H   0  0
   -0.4721   -1.6023    0.9019 H   0  0
    0.7557   -1.3640   -0.3626 H   0  0
    2.5783   -2.3528    1.2035 H   0  0
    1.3874   -2.5854    2.5040 H   0  0
    0.9255   -0.0554    2.4205 H   0  0
    3.2723    0.1757    1.4137 H   0  0
    2.0765    1.2839    1.1066 H   0  0
    2.4516    0.1324   -0.0275 H   0  0
  1  3  2  0
  1  5  1  0
  2  4  1  0
  2  6  2  0
  3  7  1  0
  4  8  2  0
  5  9  2  0
  6 10  1  0
  7 11  2  0
  8 12  1  0
  9 11  1  0
  9 13  1  0
 10 12  2  0
 10 14  1  0
 11 19  1  0
 12 20  1  0
 15 17  1  0
 15 19  1  0
 16 17  1  0
 16 20  1  0
 17 18  1  0
  1 21  1  0
  2 22  1  0
  3 23  1  0
  4 24  1  0
  5 25  1  0
  6 26  1  0
  7 27  1  0
  8 28  1  0
 13 29  1  0
 13 30  1  0
 13 31  1  0
 14 32  1  0
 14 33  1  0
 14 34  1  0
 15 35  1  0
 15 36  1  0
 16 37  1  0
 16 38  1  0
 17 39  1  0
 18 40  1  0
 18 41  1  0
 18 42  1  0
M  CHG  1  18   1
M  END
> <Name>
BR010546

$$$$
BR010547
  SciTegic05062102053D

 42 43  0  0  1  0            999 V2000
   -3.3673   -1.0695   -1.4328 C   0  0
    5.2149   -4.4793    2.7948 C   0  0
   -4.2504   -0.0038   -1.2596 C   0  0
    6.4437   -3.9390    3.1741 C   0  0
   -2.0548   -0.9698   -0.9709 C   0  0
    4.0835   -3.6656    2.7362 C   0  0
   -2.5086    1.2614   -0.1630 C   0  0
    5.4096   -1.7713    3.4363 C   0  0
   -3.8211    1.1617   -0.6248 C   0  0
    6.5410   -2.5851    3.4948 C   0  0
   -1.6255    0.1956   -0.3361 C   0  0
    4.1808   -2.3116    3.0570 C   0  0
   -4.7653    2.3012   -0.4402 C   0  0
    7.8547   -2.0076    3.9008 C   0  0
    0.2932   -0.9161    0.5231 C   0  0
    2.0750   -1.8664    2.0455 C   0  0
    1.3499   -0.6110    1.5772 C   0  0  1  0  0  0
    2.3605    0.3116    0.9740 N   0  3
   -0.3366    0.2932    0.1180 O   0  0
    3.0696   -1.5123    2.9989 O   0  0
   -3.7018   -1.9770   -1.9266 H   0  0
    5.1393   -5.5333    2.5446 H   0  0
   -5.2709   -0.0905   -1.6232 H   0  0
    7.3196   -4.5809    3.2172 H   0  0
   -1.3719   -1.8034   -1.1089 H   0  0
    3.1293   -4.0925    2.4401 H   0  0
   -2.1710    2.1689    0.3321 H   0  0
    5.4824   -0.7154    3.6861 H   0  0
   -5.2972    2.2057    0.5143 H   0  0
   -4.2358    3.2628   -0.4487 H   0  0
   -5.5064    2.3396   -1.2493 H   0  0
    8.3992   -1.6418    3.0217 H   0  0
    7.7237   -1.1726    4.6012 H   0  0
    8.4779   -2.7544    4.4101 H   0  0
   -0.4721   -1.6023    0.9019 H   0  0
    0.7557   -1.3640   -0.3626 H   0  0
    2.5783   -2.3528    1.2035 H   0  0
    1.3874   -2.5854    2.5040 H   0  0
    0.9255   -0.0554    2.4205 H   0  0
    3.2723    0.1757    1.4137 H   0  0
    2.0765    1.2839    1.1066 H   0  0
    2.4516    0.1324   -0.0275 H   0  0
  1  3  2  0
  1  5  1  0
  2  4  1  0
  2  6  2  0
  3  9  1  0
  4 10  2  0
  5 11  2  0
  6 12  1  0
  7  9  2  0
  7 11  1  0
  8 10  1  0
  8 12  2  0
  9 13  1  0
 10 14  1  0
 11 19  1  0
 12 20  1  0
 15 17  1  0
 15 19  1  0
 16 17  1  0
 16 20  1  0
 17 18  1  0
  1 21  1  0
  2 22  1  0
  3 23  1  0
  4 24  1  0
  5 25  1  0
  6 26  1  0
  7 27  1  0
  8 28  1  0
 13 29  1  0
 13 30  1  0
 13 31  1  0
 14 32  1  0
 14 33  1  0
 14 34  1  0
 15 35  1  0
 15 36  1  0
 16 37  1  0
 16 38  1  0
 17 39  1  0
 18 40  1  0
 18 41  1  0
 18 42  1  0
M  CHG  1  18   1
M  END
> <Name>
BR010547

$$$$
BR010548
  SciTegic05062102053D

 42 43  0  0  0  0            999 V2000
   -2.4005   -3.0181   -1.8373 C   0  0
   -2.9364   -4.3720    0.0906 C   0  0
    6.5283    0.8566    0.0258 C   0  0
    7.1404    0.1239    2.2452 C   0  0
   -1.6530   -2.1622   -1.0285 C   0  0
   -2.1889   -3.5161    0.8995 C   0  0
    5.1810    0.8173    0.3844 C   0  0
    5.7930    0.0847    2.6038 C   0  0
   -3.0423   -4.1230   -1.2777 C   0  0
    7.5081    0.5099    0.9562 C   0  0
   -1.5472   -2.4112    0.3399 C   0  0
    4.8133    0.4313    1.6734 C   0  0
   -3.8410   -5.0386   -2.1424 C   0  0
    8.9487    0.5524    0.5732 C   0  0
    0.2932   -0.9161    0.5231 C   0  0
    2.5589    0.1059    0.9896 C   0  0
    1.3499   -0.6110    1.5772 C   0  0
    1.8138   -1.9068    2.1622 N   0  3
   -0.8118   -1.5711    1.1340 O   0  0
    3.4898    0.3941    2.0258 O   0  0
   -2.4776   -2.8165   -2.9023 H   0  0
   -3.4332   -5.2305    0.5353 H   0  0
    6.8057    1.1583   -0.9806 H   0  0
    7.8970   -0.1480    2.9767 H   0  0
   -1.1551   -1.3032   -1.4703 H   0  0
   -2.1100   -3.7156    1.9645 H   0  0
    4.4223    1.0888   -0.3449 H   0  0
    5.5131   -0.2164    3.6094 H   0  0
   -3.2079   -5.8450   -2.5323 H   0  0
   -4.6731   -5.4882   -1.5852 H   0  0
   -4.2818   -4.5007   -2.9920 H   0  0
    9.3710    1.5426    0.7840 H   0  0
    9.5300   -0.1982    1.1244 H   0  0
    9.0836    0.3368   -0.4948 H   0  0
    0.6870   -1.5576   -0.2728 H   0  0
   -0.0761    0.0112    0.0731 H   0  0
    2.2566    1.0570    0.5389 H   0  0
    3.0582   -0.4995    0.2254 H   0  0
    0.9255   -0.0554    2.4205 H   0  0
    1.2398   -2.1579    2.9688 H   0  0
    2.7863   -1.8308    2.4655 H   0  0
    1.7460   -2.6538    1.4688 H   0  0
  1  5  2  0
  1  9  1  0
  2  6  1  0
  2  9  2  0
  3  7  2  0
  3 10  1  0
  4  8  1  0
  4 10  2  0
  5 11  1  0
  6 11  2  0
  7 12  1  0
  8 12  2  0
  9 13  1  0
 10 14  1  0
 11 19  1  0
 12 20  1  0
 15 17  1  0
 15 19  1  0
 16 17  1  0
 16 20  1  0
 17 18  1  0
  1 21  1  0
  2 22  1  0
  3 23  1  0
  4 24  1  0
  5 25  1  0
  6 26  1  0
  7 27  1  0
  8 28  1  0
 13 29  1  0
 13 30  1  0
 13 31  1  0
 14 32  1  0
 14 33  1  0
 14 34  1  0
 15 35  1  0
 15 36  1  0
 16 37  1  0
 16 38  1  0
 17 39  1  0
 18 40  1  0
 18 41  1  0
 18 42  1  0
M  CHG  1  18   1
M  END
> <Name>
BR010548

$$$$
BR010549
  SciTegic05062102053D

 36 37  0  0  1  0            999 V2000
   -1.6623   -1.6313   -3.2012 C   0  0
    5.1331   -4.5006    3.4292 C   0  0
   -1.0013   -1.0113   -4.2614 C   0  0
    6.4075   -3.9870    3.1893 C   0  0
   -1.0135   -1.8006   -1.9780 C   0  0
    4.0197   -3.6630    3.3629 C   0  0
    0.3086   -0.5605   -4.0986 C   0  0
    6.5687   -2.6357    2.8834 C   0  0
    0.2965   -1.3498   -1.8152 C   0  0
    4.1808   -2.3116    3.0570 C   0  0
    0.9575   -0.7297   -2.8755 C   0  0
    5.4553   -1.7980    2.8172 C   0  0
    0.2932   -0.9161    0.5231 C   0  0
    2.0750   -1.8664    2.0455 C   0  0
    1.3499   -0.6110    1.5772 C   0  0  1  0  0  0
    2.3605    0.3116    0.9740 N   0  3
    0.9091   -1.5294   -0.6030 O   0  0
    3.0696   -1.5123    2.9989 O   0  0
    2.5775   -0.1626   -2.7024 Cl  0  0
    5.6839   -0.1310    2.4368 Cl  0  0
   -2.6823   -1.9823   -3.3280 H   0  0
    5.0077   -5.5528    3.6674 H   0  0
   -1.5067   -0.8796   -5.2137 H   0  0
    7.2743   -4.6394    3.2409 H   0  0
   -1.5346   -2.2845   -1.1564 H   0  0
    3.0298   -4.0700    3.5509 H   0  0
    0.8101   -0.0793   -4.9345 H   0  0
    7.5684   -2.2507    2.6991 H   0  0
   -0.2235   -0.0089    0.1915 H   0  0
   -0.4500   -1.6161    0.9188 H   0  0
    2.5783   -2.3528    1.2035 H   0  0
    1.3874   -2.5854    2.5040 H   0  0
    0.9255   -0.0554    2.4205 H   0  0
    3.2723    0.1757    1.4137 H   0  0
    2.0765    1.2839    1.1066 H   0  0
    2.4516    0.1324   -0.0275 H   0  0
  1  3  2  0
  1  5  1  0
  2  4  1  0
  2  6  2  0
  3  7  1  0
  4  8  2  0
  5  9  2  0
  6 10  1  0
  7 11  2  0
  8 12  1  0
  9 11  1  0
  9 17  1  0
 10 12  2  0
 10 18  1  0
 11 19  1  0
 12 20  1  0
 13 15  1  0
 13 17  1  0
 14 15  1  0
 14 18  1  0
 15 16  1  0
  1 21  1  0
  2 22  1  0
  3 23  1  0
  4 24  1  0
  5 25  1  0
  6 26  1  0
  7 27  1  0
  8 28  1  0
 13 29  1  0
 13 30  1  0
 14 31  1  0
 14 32  1  0
 15 33  1  0
 16 34  1  0
 16 35  1  0
 16 36  1  0
M  CHG  1  16   1
M  END
> <Name>
BR010549

$$$$
BR010550
  SciTegic05062102053D

 36 37  0  0  1  0            999 V2000
   -3.3668   -1.0686   -1.4344 C   0  0
    5.2147   -4.4796    2.7967 C   0  0
   -2.0550   -0.9698   -0.9710 C   0  0
    4.0836   -3.6656    2.7363 C   0  0
   -4.2493   -0.0020   -1.2631 C   0  0
    6.4430   -3.9396    3.1780 C   0  0
   -2.5079    1.2623   -0.1647 C   0  0
    5.4091   -1.7716    3.4383 C   0  0
   -1.6255    0.1956   -0.3361 C   0  0
    4.1808   -2.3116    3.0570 C   0  0
   -3.8198    1.1634   -0.6282 C   0  0
    6.5402   -2.5856    3.4988 C   0  0
    0.2932   -0.9161    0.5231 C   0  0
    2.0750   -1.8664    2.0455 C   0  0
    1.3499   -0.6110    1.5772 C   0  0  1  0  0  0
    2.3605    0.3116    0.9740 N   0  3
   -0.3366    0.2932    0.1180 O   0  0
    3.0696   -1.5123    2.9989 O   0  0
   -4.9093    2.4785   -0.4177 Cl  0  0
    8.0559   -1.9208    3.9692 Cl  0  0
   -3.7008   -1.9759   -1.9291 H   0  0
    5.1386   -5.5339    2.5474 H   0  0
   -1.3721   -1.8039   -1.1071 H   0  0
    3.1295   -4.0918    2.4384 H   0  0
   -5.2689   -0.0933   -1.6287 H   0  0
    7.3162   -4.5857    3.2201 H   0  0
   -2.1654    2.1672    0.3318 H   0  0
    5.4765   -0.7148    3.6863 H   0  0
   -0.4721   -1.6023    0.9019 H   0  0
    0.7557   -1.3640   -0.3626 H   0  0
    2.5783   -2.3528    1.2035 H   0  0
    1.3874   -2.5854    2.5040 H   0  0
    0.9255   -0.0554    2.4205 H   0  0
    3.2723    0.1757    1.4137 H   0  0
    2.0765    1.2839    1.1066 H   0  0
    2.4516    0.1324   -0.0275 H   0  0
  1  3  1  0
  1  5  2  0
  2  4  2  0
  2  6  1  0
  3  9  2  0
  4 10  1  0
  5 11  1  0
  6 12  2  0
  7  9  1  0
  7 11  2  0
  8 10  2  0
  8 12  1  0
  9 17  1  0
 10 18  1  0
 11 19  1  0
 12 20  1  0
 13 15  1  0
 13 17  1  0
 14 15  1  0
 14 18  1  0
 15 16  1  0
  1 21  1  0
  2 22  1  0
  3 23  1  0
  4 24  1  0
  5 25  1  0
  6 26  1  0
  7 27  1  0
  8 28  1  0
 13 29  1  0
 13 30  1  0
 14 31  1  0
 14 32  1  0
 15 33  1  0
 16 34  1  0
 16 35  1  0
 16 36  1  0
M  CHG  1  16   1
M  END
> <Name>
BR010550

$$$$
BR010551
  SciTegic05062102053D

 36 37  0  0  0  0            999 V2000
   -1.6533   -2.1626   -1.0285 C   0  0
   -2.1893   -3.5156    0.9000 C   0  0
    5.1814    0.8172    0.3845 C   0  0
    5.7926    0.0839    2.6039 C   0  0
   -2.4014   -3.0184   -1.8369 C   0  0
   -2.9375   -4.3714    0.0916 C   0  0
    6.5289    0.8558    0.0261 C   0  0
    7.1401    0.1224    2.2455 C   0  0
   -1.5472   -2.4112    0.3399 C   0  0
    4.8133    0.4313    1.6734 C   0  0
   -3.0435   -4.1228   -1.2769 C   0  0
    7.5082    0.5084    0.9566 C   0  0
    0.2932   -0.9161    0.5231 C   0  0
    2.5589    0.1059    0.9896 C   0  0
    1.3499   -0.6110    1.5772 C   0  0
    1.8138   -1.9068    2.1622 N   0  3
   -0.8118   -1.5711    1.1340 O   0  0
    3.4898    0.3941    2.0258 O   0  0
   -3.9655   -5.1795   -2.2742 Cl  0  0
    9.1708    0.5572    0.5151 Cl  0  0
   -1.1553   -1.3045   -1.4712 H   0  0
   -2.1100   -3.7146    1.9651 H   0  0
    4.4237    1.0895   -0.3449 H   0  0
    5.5120   -0.2170    3.6095 H   0  0
   -2.4747   -2.8131   -2.9021 H   0  0
   -3.4318   -5.2288    0.5414 H   0  0
    6.8015    1.1594   -0.9816 H   0  0
    7.8927   -0.1500    2.9812 H   0  0
    0.6870   -1.5576   -0.2728 H   0  0
   -0.0761    0.0112    0.0731 H   0  0
    2.2566    1.0570    0.5389 H   0  0
    3.0582   -0.4995    0.2254 H   0  0
    0.9255   -0.0554    2.4205 H   0  0
    1.2398   -2.1579    2.9688 H   0  0
    2.7863   -1.8308    2.4655 H   0  0
    1.7460   -2.6538    1.4688 H   0  0
  1  5  2  0
  1  9  1  0
  2  6  1  0
  2  9  2  0
  3  7  1  0
  3 10  2  0
  4  8  2  0
  4 10  1  0
  5 11  1  0
  6 11  2  0
  7 12  2  0
  8 12  1  0
  9 17  1  0
 10 18  1  0
 11 19  1  0
 12 20  1  0
 13 15  1  0
 13 17  1  0
 14 15  1  0
 14 18  1  0
 15 16  1  0
  1 21  1  0
  2 22  1  0
  3 23  1  0
  4 24  1  0
  5 25  1  0
  6 26  1  0
  7 27  1  0
  8 28  1  0
 13 29  1  0
 13 30  1  0
 14 31  1  0
 14 32  1  0
 15 33  1  0
 16 34  1  0
 16 35  1  0
 16 36  1  0
M  CHG  1  16   1
M  END
> <Name>
BR010551

$$$$
BR010552
  SciTegic05062102053D

 36 37  0  0  0  0            999 V2000
   -3.0419   -4.1244   -1.2767 C   0  0
    7.5085    0.5102    0.9579 C   0  0
   -2.4009   -3.0195   -1.8368 C   0  0
   -2.9357   -4.3727    0.0919 C   0  0
    6.5294    0.8565    0.0268 C   0  0
    7.1401    0.1243    2.2467 C   0  0
   -1.6535   -2.1629   -1.0286 C   0  0
   -2.1883   -3.5161    0.9001 C   0  0
    5.1818    0.8172    0.3846 C   0  0
    5.7924    0.0849    2.6045 C   0  0
   -1.5472   -2.4112    0.3399 C   0  0
    4.8133    0.4313    1.6734 C   0  0
    0.2932   -0.9161    0.5231 C   0  0
    2.5589    0.1059    0.9896 C   0  0
    1.3499   -0.6110    1.5772 C   0  0
    1.8138   -1.9068    2.1622 N   0  3
   -0.8118   -1.5711    1.1340 O   0  0
    3.4898    0.3941    2.0258 O   0  0
   -3.6244   -4.7912   -1.9056 H   0  0
    8.5579    0.5402    0.6795 H   0  0
   -2.4834   -2.8261   -2.9025 H   0  0
   -3.4353   -5.2332    0.5274 H   0  0
    6.8162    1.1572   -0.9767 H   0  0
    7.9031   -0.1454    2.9712 H   0  0
   -1.1553   -1.3047   -1.4714 H   0  0
   -2.1075   -3.7155    1.9652 H   0  0
    4.4240    1.0896   -0.3450 H   0  0
    5.5113   -0.2147    3.6104 H   0  0
    0.6870   -1.5576   -0.2728 H   0  0
   -0.0761    0.0112    0.0731 H   0  0
    2.2566    1.0570    0.5389 H   0  0
    3.0582   -0.4995    0.2254 H   0  0
    0.9255   -0.0554    2.4205 H   0  0
    1.2398   -2.1579    2.9688 H   0  0
    2.7863   -1.8308    2.4655 H   0  0
    1.7460   -2.6538    1.4688 H   0  0
  1  3  1  0
  1  4  2  0
  2  5  1  0
  2  6  2  0
  3  7  2  0
  4  8  1  0
  5  9  2  0
  6 10  1  0
  7 11  1  0
  8 11  2  0
  9 12  1  0
 10 12  2  0
 11 17  1  0
 12 18  1  0
 13 15  1  0
 13 17  1  0
 14 15  1  0
 14 18  1  0
 15 16  1  0
  1 19  1  0
  2 20  1  0
  3 21  1  0
  4 22  1  0
  5 23  1  0
  6 24  1  0
  7 25  1  0
  8 26  1  0
  9 27  1  0
 10 28  1  0
 13 29  1  0
 13 30  1  0
 14 31  1  0
 14 32  1  0
 15 33  1  0
 16 34  1  0
 16 35  1  0
 16 36  1  0
M  CHG  1  16   1
M  END
> <Name>
BR010552

$$$$
BR010553
  SciTegic05062102053D

 48 51  0  0  0  0            999 V2000
   -0.7395   -2.2735    0.2288 C   0  0
    9.4417  -14.5464   -0.1116 C   0  0
    0.1158   -1.9334    1.2727 C   0  0
   10.0177  -13.7883    0.9034 C   0  0
   -0.2649   -3.0255   -0.8462 C   0  0
    8.7229  -13.9194   -1.1297 C   0  0
    1.4489   -2.3440    1.2456 C   0  0
    9.8773  -12.4002    0.9042 C   0  0
    1.5686   -4.2048   -1.9643 C   0  0
    7.8513  -11.8754   -2.1618 C   0  0
    2.9017   -4.6154   -1.9915 C   0  0
    7.7107  -10.4874   -2.1610 C   0  0
    3.2825   -3.5232    0.1275 C   0  0
    9.0056  -10.3562   -0.1278 C   0  0
    1.0739   -3.4473   -0.8901 C   0  0
    8.5713  -12.5233   -1.1449 C   0  0
    1.9436   -3.1014    0.1714 C   0  0
    9.1571  -11.7523   -0.1127 C   0  0
    3.7569   -4.2753   -0.9476 C   0  0
    8.2868   -9.7292   -1.1460 C   0  0
    5.3444   -5.9007   -1.6503 C   0  0
    6.9614   -7.8434   -1.7315 C   0  0
    6.5898   -6.5353   -1.0445 C   0  0
    6.3121   -6.8264    0.3958 N   0  3
    5.0571   -4.6769   -0.9755 O   0  0
    8.1481   -8.3662   -1.1469 O   0  0
   -1.7769   -1.9529    0.2504 H   0  0
    9.5509  -15.6269   -0.1111 H   0  0
   -0.2540   -1.3481    2.1097 H   0  0
   10.5775  -14.2767    1.6959 H   0  0
   -0.9505   -3.2799   -1.6519 H   0  0
    8.2804  -14.5311   -1.9131 H   0  0
    2.0995   -2.0660    2.0722 H   0  0
   10.3355  -11.8278    1.7081 H   0  0
    0.9180   -4.4816   -2.7915 H   0  0
    7.3919  -12.4482   -2.9649 H   0  0
    3.2661   -5.2005   -2.8316 H   0  0
    7.1494  -10.0043   -2.9562 H   0  0
    3.9644   -3.2659    0.9361 H   0  0
    9.4501   -9.7487    0.6585 H   0  0
    4.4730   -6.5599   -1.5708 H   0  0
    5.5102   -5.6676   -2.7072 H   0  0
    7.1605   -7.6729   -2.7946 H   0  0
    6.1651   -8.5903   -1.6408 H   0  0
    7.4318   -5.8348   -1.0347 H   0  0
    5.4421   -7.3530    0.4903 H   0  0
    6.2248   -5.9557    0.9229 H   0  0
    7.0718   -7.3770    0.7996 H   0  0
  1  3  1  0
  1  5  2  0
  2  4  1  0
  2  6  2  0
  3  7  2  0
  4  8  2  0
  5 15  1  0
  6 16  1  0
  7 17  1  0
  8 18  1  0
  9 11  1  0
  9 15  2  0
 10 12  1  0
 10 16  2  0
 11 19  2  0
 12 20  2  0
 13 17  2  0
 13 19  1  0
 14 18  2  0
 14 20  1  0
 15 17  1  0
 16 18  1  0
 19 25  1  0
 20 26  1  0
 21 23  1  0
 21 25  1  0
 22 23  1  0
 22 26  1  0
 23 24  1  0
  1 27  1  0
  2 28  1  0
  3 29  1  0
  4 30  1  0
  5 31  1  0
  6 32  1  0
  7 33  1  0
  8 34  1  0
  9 35  1  0
 10 36  1  0
 11 37  1  0
 12 38  1  0
 13 39  1  0
 14 40  1  0
 21 41  1  0
 21 42  1  0
 22 43  1  0
 22 44  1  0
 23 45  1  0
 24 46  1  0
 24 47  1  0
 24 48  1  0
M  CHG  1  24   1
M  END
> <Name>
BR010553

$$$$
BR010554
  SciTegic05062102053D

 38 39  0  0  1  0            999 V2000
    1.8615   -0.9683    3.7277 C   0  0
    6.5366    2.6545   -0.7375 C   0  0
    2.7926   -0.2797    4.5053 C   0  0
    7.1875    1.9560    0.2794 C   0  0
    1.3709   -0.3937    2.5551 C   0  0
    5.2905    2.2233   -1.1928 C   0  0
    2.7423    1.5582    2.9379 C   0  0
    5.3464    0.3951    0.3857 C   0  0
    3.2329    0.9835    4.1104 C   0  0
    6.5924    0.8263    0.8410 C   0  0
    1.8113    0.8695    2.1603 C   0  0
    4.6955    1.0936   -0.6312 C   0  0
    0.9523    0.5385   -0.0326 C   0  0
    2.5900    1.6733   -1.5727 C   0  0
    1.1440    1.2331   -1.3744 C   0  0  1  0  0  0
    4.1812    1.6843    4.9018 N   0  3
    7.2549    0.1156    1.8767 N   0  3
    4.6101    1.1491    5.9525 O   0  5
    8.3748    0.5208    2.2718 O   0  5
    4.5643    2.8192    4.5284 O   0  0
    6.7021   -0.8977    2.3684 O   0  0
    0.8022    0.3036   -2.4052 O   0  0
    1.3292    1.4330    1.0089 O   0  0
    3.4722    0.6709   -1.0786 O   0  0
    1.5182   -1.9517    4.0354 H   0  0
    7.0001    3.5338   -1.1752 H   0  0
    3.1671   -0.7391    5.4170 H   0  0
    8.1584    2.3029    0.6252 H   0  0
    0.6461   -0.9350    1.9533 H   0  0
    4.7881    2.7715   -1.9850 H   0  0
    3.0805    2.5433    2.6243 H   0  0
    4.8769   -0.4855    0.8184 H   0  0
    1.5825   -0.3536    0.0460 H   0  0
   -0.0952    0.2611    0.1216 H   0  0
    2.8040    2.6052   -1.0402 H   0  0
    2.8179    1.8125   -2.6342 H   0  0
    0.4552    2.0798   -1.4720 H   0  0
   -0.1236    0.0609   -2.2566 H   0  0
  1  3  1  0
  1  5  2  0
  2  4  2  0
  2  6  1  0
  3  9  2  0
  4 10  1  0
  5 11  1  0
  6 12  2  0
  7  9  1  0
  7 11  2  0
  8 10  2  0
  8 12  1  0
  9 16  1  0
 10 17  1  0
 11 23  1  0
 12 24  1  0
 13 15  1  0
 13 23  1  0
 14 15  1  0
 14 24  1  0
 15 22  1  0
 16 18  1  0
 16 20  2  0
 17 19  1  0
 17 21  2  0
  1 25  1  0
  2 26  1  0
  3 27  1  0
  4 28  1  0
  5 29  1  0
  6 30  1  0
  7 31  1  0
  8 32  1  0
 13 33  1  0
 13 34  1  0
 14 35  1  0
 14 36  1  0
 15 37  1  0
 22 38  1  0
M  CHG  4  16   1  17   1  18  -1  19  -1
M  END
> <Name>
BR010554

$$$$
BR010555
  SciTegic05062102053D

 46 49  0  0  1  0            999 V2000
    1.1356    4.4857   -2.9020 C   0  0
   -1.4923    2.6637    0.7177 C   0  0
    2.2934    4.3708   -2.1383 C   0  0
   -0.9317    1.3902    0.6892 C   0  0
    1.0432   -0.3432   -3.4894 C   0  0
    2.8465    4.5485    1.8556 C   0  0
    0.5315    3.3448   -3.4310 C   0  0
   -0.6968    3.7707    1.0145 C   0  0
    2.8516    3.1144   -1.9008 C   0  0
    0.4267    1.2189    0.9573 C   0  0
    0.4850    0.9132   -3.7268 C   0  0
    1.4881    4.7198    1.5874 C   0  0
    2.2011   -0.4582   -2.7258 C   0  0
    3.4071    3.2750    1.8271 C   0  0
    1.0796    2.0722   -3.2021 C   0  0
    0.6723    3.6168    1.2869 C   0  0
    2.2570    1.9553   -2.4256 C   0  0
    1.2425    2.3218    1.2579 C   0  0
    2.8052    0.6827   -2.1967 C   0  0
    2.6116    2.1679    1.5303 C   0  0
    4.0685   -0.7017   -0.7327 C   0  0
    4.5826    0.8938    1.1466 C   0  0
    4.9085   -0.4541    0.5134 C   0  0  2  0  0  0
    6.2845   -0.4584    0.1259 O   0  0
    3.9398    0.5202   -1.4539 O   0  0
    3.2077    0.9352    1.5141 O   0  0
    0.7015    5.4641   -3.0864 H   0  0
   -2.5499    2.7964    0.5089 H   0  0
    2.7630    5.2595   -1.7268 H   0  0
   -1.5518    0.5290    0.4581 H   0  0
    0.5734   -1.2317   -3.9010 H   0  0
    3.4663    5.4099    2.0866 H   0  0
   -0.3730    3.4585   -4.0250 H   0  0
   -1.1563    4.7568    1.0312 H   0  0
    3.7568    3.0599   -1.3000 H   0  0
    0.8330    0.2103    0.9267 H   0  0
   -0.4204    0.9793   -4.3265 H   0  0
    1.0712    5.7244    1.6153 H   0  0
    2.6295   -1.4405   -2.5456 H   0  0
    4.4660    3.1502    2.0371 H   0  0
    3.0622   -1.0454   -0.4711 H   0  0
    4.5459   -1.4347   -1.3905 H   0  0
    4.7734    1.7204    0.4550 H   0  0
    5.1677    1.0534    2.0578 H   0  0
    4.7810   -1.2709    1.2328 H   0  0
    6.3866    0.2540   -0.5223 H   0  0
  1  3  1  0
  1  7  2  0
  2  4  1  0
  2  8  2  0
  3  9  2  0
  4 10  2  0
  5 11  2  0
  5 13  1  0
  6 12  1  0
  6 14  2  0
  7 15  1  0
  8 16  1  0
  9 17  1  0
 10 18  1  0
 11 15  1  0
 12 16  2  0
 13 19  2  0
 14 20  1  0
 15 17  2  0
 16 18  1  0
 17 19  1  0
 18 20  2  0
 19 25  1  0
 20 26  1  0
 21 23  1  0
 21 25  1  0
 22 23  1  0
 22 26  1  0
 23 24  1  0
  1 27  1  0
  2 28  1  0
  3 29  1  0
  4 30  1  0
  5 31  1  0
  6 32  1  0
  7 33  1  0
  8 34  1  0
  9 35  1  0
 10 36  1  0
 11 37  1  0
 12 38  1  0
 13 39  1  0
 14 40  1  0
 21 41  1  0
 21 42  1  0
 22 43  1  0
 22 44  1  0
 23 45  1  0
 24 46  1  0
M  END
> <Name>
BR010555

$$$$
BR010556
  SciTegic05062102053D

 36 37  0  0  1  0            999 V2000
    3.2242    2.8335    2.5930 C   0  0
    4.8714   -1.5152   -0.1761 C   0  0
    2.7593   -0.3263    4.4956 C   0  0
    7.3434    1.2605   -0.2493 C   0  0
    1.8280   -0.9927    3.6994 C   0  0
    6.6233    2.2531   -0.9140 C   0  0
    3.2166    0.9381    4.1243 C   0  0
    6.7585    0.0172   -0.0086 C   0  0
    1.3540   -0.3949    2.5317 C   0  0
    5.3183    2.0025   -1.3380 C   0  0
    2.7426    1.5360    2.9566 C   0  0
    5.4535   -0.2334   -0.4326 C   0  0
    1.8113    0.8695    2.1603 C   0  0
    4.7334    0.7592   -1.0973 C   0  0
    0.9523    0.5385   -0.0326 C   0  0
    2.5900    1.6733   -1.5727 C   0  0
    1.1440    1.2331   -1.3744 C   0  0  1  0  0  0
    3.6146    3.8859    2.2981 N   0  0
    4.3994   -2.5548    0.0319 N   0  0
    0.8022    0.3036   -2.4052 O   0  0
    1.3292    1.4330    1.0089 O   0  0
    3.4508    0.5402   -1.5245 O   0  0
    3.1283   -0.7920    5.4048 H   0  0
    8.3595    1.4559    0.0808 H   0  0
    1.4720   -1.9772    3.9886 H   0  0
    7.0788    3.2211   -1.1014 H   0  0
    3.9427    1.4442    4.7562 H   0  0
    7.3336   -0.7457    0.5109 H   0  0
    0.6285   -0.9199    1.9162 H   0  0
    4.7633    2.7804   -1.8553 H   0  0
    1.5825   -0.3536    0.0460 H   0  0
   -0.0952    0.2611    0.1216 H   0  0
    2.9082    2.3738   -0.7943 H   0  0
    2.7281    2.1452   -2.5506 H   0  0
    0.4552    2.0798   -1.4720 H   0  0
   -0.1236    0.0609   -2.2566 H   0  0
  1 11  1  0
  1 18  3  0
  2 12  1  0
  2 19  3  0
  3  5  2  0
  3  7  1  0
  4  6  1  0
  4  8  2  0
  5  9  1  0
  6 10  2  0
  7 11  2  0
  8 12  1  0
  9 13  2  0
 10 14  1  0
 11 13  1  0
 12 14  2  0
 13 21  1  0
 14 22  1  0
 15 17  1  0
 15 21  1  0
 16 17  1  0
 16 22  1  0
 17 20  1  0
  3 23  1  0
  4 24  1  0
  5 25  1  0
  6 26  1  0
  7 27  1  0
  8 28  1  0
  9 29  1  0
 10 30  1  0
 15 31  1  0
 15 32  1  0
 16 33  1  0
 16 34  1  0
 17 35  1  0
 20 36  1  0
M  END
> <Name>
BR010556

$$$$
BR010557
  SciTegic05062102053D

 36 37  0  0  1  0            999 V2000
    4.1868    1.6881    4.9067 C   0  0
    7.2591    0.1117    1.8828 C   0  0
    1.8611   -0.9686    3.7274 C   0  0
    6.5363    2.6548   -0.7379 C   0  0
    2.7922   -0.2803    4.5051 C   0  0
    7.1874    1.9566    0.2789 C   0  0
    1.3707   -0.3938    2.5549 C   0  0
    5.2903    2.2234   -1.1930 C   0  0
    2.7423    1.5579    2.9381 C   0  0
    5.3467    0.3954    0.3857 C   0  0
    3.2327    0.9829    4.1105 C   0  0
    6.5927    0.8269    0.8408 C   0  0
    1.8113    0.8695    2.1603 C   0  0
    4.6955    1.0936   -0.6312 C   0  0
    0.9523    0.5385   -0.0326 C   0  0
    2.5900    1.6733   -1.5727 C   0  0
    1.1440    1.2331   -1.3744 C   0  0  1  0  0  0
    4.9617    2.2610    5.5534 N   0  0
    7.8004   -0.4692    2.7292 N   0  0
    0.8022    0.3036   -2.4052 O   0  0
    1.3292    1.4330    1.0089 O   0  0
    3.4722    0.6709   -1.0786 O   0  0
    1.5177   -1.9521    4.0347 H   0  0
    6.9995    3.5342   -1.1758 H   0  0
    3.1652   -0.7419    5.4164 H   0  0
    8.1583    2.3055    0.6230 H   0  0
    0.6457   -0.9348    1.9529 H   0  0
    4.7877    2.7714   -1.9853 H   0  0
    3.0797    2.5433    2.6231 H   0  0
    4.8757   -0.4854    0.8175 H   0  0
    1.5825   -0.3536    0.0460 H   0  0
   -0.0952    0.2611    0.1216 H   0  0
    2.8040    2.6052   -1.0402 H   0  0
    2.8179    1.8125   -2.6342 H   0  0
    0.4552    2.0798   -1.4720 H   0  0
   -0.1236    0.0609   -2.2566 H   0  0
  1 11  1  0
  1 18  3  0
  2 12  1  0
  2 19  3  0
  3  5  2  0
  3  7  1  0
  4  6  1  0
  4  8  2  0
  5 11  1  0
  6 12  2  0
  7 13  2  0
  8 14  1  0
  9 11  2  0
  9 13  1  0
 10 12  1  0
 10 14  2  0
 13 21  1  0
 14 22  1  0
 15 17  1  0
 15 21  1  0
 16 17  1  0
 16 22  1  0
 17 20  1  0
  3 23  1  0
  4 24  1  0
  5 25  1  0
  6 26  1  0
  7 27  1  0
  8 28  1  0
  9 29  1  0
 10 30  1  0
 15 31  1  0
 15 32  1  0
 16 33  1  0
 16 34  1  0
 17 35  1  0
 20 36  1  0
M  END
> <Name>
BR010557

$$$$
BR010558
  SciTegic05062102053D

 36 37  0  0  0  0            999 V2000
    0.4478   -4.9064    3.2093 C   0  0
   -0.8485   -5.4318   -4.6984 C   0  0
    0.3113   -2.5169    2.7050 C   0  0
    1.6953   -3.9489    1.3371 C   0  0
    0.2564   -3.2506   -4.6331 C   0  0
   -1.5470   -3.7221   -3.0961 C   0  0
    0.6763   -1.4194    1.9253 C   0  0
    2.0603   -2.8514    0.5574 C   0  0
    0.3891   -1.9745   -4.0860 C   0  0
   -1.4143   -2.4459   -2.5489 C   0  0
    0.8209   -3.7817    2.4109 C   0  0
   -0.7117   -4.1245   -4.1382 C   0  0
    1.5507   -1.5866    0.8515 C   0  0
   -0.4462   -1.5721   -3.0439 C   0  0
    0.9523    0.5385   -0.0326 C   0  0
    0.9856    0.2573   -2.5348 C   0  0
    1.1440    1.2331   -1.3744 C   0  0
    0.1449   -5.8200    3.8578 N   0  0
   -0.9595   -6.4936   -5.1534 N   0  0
    2.4671    1.7733   -1.4064 O   0  0
    1.9094   -0.5089    0.0865 O   0  0
   -0.3162   -0.3189   -2.5072 O   0  0
   -0.3710   -2.3709    3.5389 H   0  0
    2.1010   -4.9285    1.0952 H   0  0
    0.9147   -3.5499   -5.4453 H   0  0
   -2.3064   -4.3918   -2.6994 H   0  0
    0.2767   -0.4364    2.1593 H   0  0
    2.7422   -2.9883   -0.2775 H   0  0
    1.1446   -1.2977   -4.4758 H   0  0
   -2.0684   -2.1385   -1.7375 H   0  0
   -0.0450    0.0930    0.0448 H   0  0
    1.1073    1.2349    0.7974 H   0  0
    1.7168   -0.5552   -2.4807 H   0  0
    1.0950    0.7675   -3.4970 H   0  0
    0.4552    2.0798   -1.4720 H   0  0
    3.0699    1.0224   -1.3025 H   0  0
  1 11  1  0
  1 18  3  0
  2 12  1  0
  2 19  3  0
  3  7  2  0
  3 11  1  0
  4  8  1  0
  4 11  2  0
  5  9  2  0
  5 12  1  0
  6 10  1  0
  6 12  2  0
  7 13  1  0
  8 13  2  0
  9 14  1  0
 10 14  2  0
 13 21  1  0
 14 22  1  0
 15 17  1  0
 15 21  1  0
 16 17  1  0
 16 22  1  0
 17 20  1  0
  3 23  1  0
  4 24  1  0
  5 25  1  0
  6 26  1  0
  7 27  1  0
  8 28  1  0
  9 29  1  0
 10 30  1  0
 15 31  1  0
 15 32  1  0
 16 33  1  0
 16 34  1  0
 17 35  1  0
 20 36  1  0
M  END
> <Name>
BR010558

$$$$
BR010559
  SciTegic05062102053D

 38 39  0  0  1  0            999 V2000
    2.7659   -0.3227    4.4948 C   0  0
    7.3424    1.2558   -0.2435 C   0  0
    1.8331   -0.9909    3.7016 C   0  0
    6.6255    2.2497   -0.9097 C   0  0
    3.2213    0.9416    4.1208 C   0  0
    6.7548    0.0135   -0.0043 C   0  0
    1.3559   -0.3948    2.5343 C   0  0
    5.3210    2.0015   -1.3366 C   0  0
    2.7440    1.5377    2.9535 C   0  0
    5.4503   -0.2347   -0.4312 C   0  0
    1.8113    0.8695    2.1603 C   0  0
    4.7334    0.7592   -1.0973 C   0  0
    0.9523    0.5385   -0.0326 C   0  0
    2.5900    1.6733   -1.5727 C   0  0
    1.1440    1.2331   -1.3744 C   0  0  1  0  0  0
    3.2191    2.8270    2.5875 N   0  3
    4.8670   -1.5069   -0.1790 N   0  3
    4.2374    2.9139    1.8612 O   0  5
    4.2338   -1.6822    0.8889 O   0  5
    2.6054    3.8389    3.0015 O   0  0
    5.0027   -2.4155   -1.0322 O   0  0
    0.8022    0.3036   -2.4052 O   0  0
    1.3292    1.4330    1.0089 O   0  0
    3.4508    0.5402   -1.5245 O   0  0
    3.1377   -0.7870    5.4036 H   0  0
    8.3581    1.4492    0.0892 H   0  0
    1.4783   -1.9752    3.9928 H   0  0
    7.0831    3.2170   -1.0961 H   0  0
    3.9484    1.4507    4.7489 H   0  0
    7.3257   -0.7519    0.5160 H   0  0
    0.6289   -0.9210    1.9209 H   0  0
    4.7682    2.7804   -1.8553 H   0  0
    1.5825   -0.3536    0.0460 H   0  0
   -0.0952    0.2611    0.1216 H   0  0
    2.9082    2.3738   -0.7943 H   0  0
    2.7281    2.1452   -2.5506 H   0  0
    0.4552    2.0798   -1.4720 H   0  0
   -0.1236    0.0609   -2.2566 H   0  0
  1  3  2  0
  1  5  1  0
  2  4  1  0
  2  6  2  0
  3  7  1  0
  4  8  2  0
  5  9  2  0
  6 10  1  0
  7 11  2  0
  8 12  1  0
  9 11  1  0
  9 16  1  0
 10 12  2  0
 10 17  1  0
 11 23  1  0
 12 24  1  0
 13 15  1  0
 13 23  1  0
 14 15  1  0
 14 24  1  0
 15 22  1  0
 16 18  1  0
 16 20  2  0
 17 19  1  0
 17 21  2  0
  1 25  1  0
  2 26  1  0
  3 27  1  0
  4 28  1  0
  5 29  1  0
  6 30  1  0
  7 31  1  0
  8 32  1  0
 13 33  1  0
 13 34  1  0
 14 35  1  0
 14 36  1  0
 15 37  1  0
 22 38  1  0
M  CHG  4  16   1  17   1  18  -1  19  -1
M  END
> <Name>
BR010559

$$$$
BR010560
  SciTegic05062102053D

 38 39  0  0  0  0            999 V2000
    0.3109   -2.5173    2.7045 C   0  0
    1.6945   -3.9492    1.3362 C   0  0
    0.2567   -3.2510   -4.6326 C   0  0
   -1.5463   -3.7225   -3.0951 C   0  0
    0.6763   -1.4196    1.9254 C   0  0
    2.0598   -2.8515    0.5569 C   0  0
    0.3891   -1.9746   -4.0860 C   0  0
   -1.4139   -2.4461   -2.5484 C   0  0
    0.8200   -3.7821    2.4100 C   0  0
   -0.7110   -4.1250   -4.1372 C   0  0
    1.5507   -1.5866    0.8515 C   0  0
   -0.4462   -1.5721   -3.0439 C   0  0
    0.9523    0.5385   -0.0326 C   0  0
    0.9856    0.2573   -2.5348 C   0  0
    1.1440    1.2331   -1.3744 C   0  0
    0.4484   -4.8997    3.2031 N   0  3
   -0.8461   -5.4244   -4.6936 N   0  3
   -0.3393   -4.7279    4.1647 O   0  5
   -0.0849   -5.7668   -5.6305 O   0  5
    0.9177   -6.0286    2.9206 O   0  0
   -1.7228   -6.1948   -4.2329 O   0  0
    2.4671    1.7733   -1.4064 O   0  0
    1.9094   -0.5089    0.0865 O   0  0
   -0.3162   -0.3189   -2.5072 O   0  0
   -0.3717   -2.3733    3.5384 H   0  0
    2.0991   -4.9292    1.0957 H   0  0
    0.9144   -3.5522   -5.4443 H   0  0
   -2.3051   -4.3934   -2.6997 H   0  0
    0.2762   -0.4368    2.1595 H   0  0
    2.7417   -2.9879   -0.2780 H   0  0
    1.1450   -1.2983   -4.4759 H   0  0
   -2.0678   -2.1381   -1.7370 H   0  0
   -0.0450    0.0930    0.0448 H   0  0
    1.1073    1.2349    0.7974 H   0  0
    1.7168   -0.5552   -2.4807 H   0  0
    1.0950    0.7675   -3.4970 H   0  0
    0.4552    2.0798   -1.4720 H   0  0
    3.0699    1.0224   -1.3025 H   0  0
  1  5  2  0
  1  9  1  0
  2  6  1  0
  2  9  2  0
  3  7  2  0
  3 10  1  0
  4  8  1  0
  4 10  2  0
  5 11  1  0
  6 11  2  0
  7 12  1  0
  8 12  2  0
  9 16  1  0
 10 17  1  0
 11 23  1  0
 12 24  1  0
 13 15  1  0
 13 23  1  0
 14 15  1  0
 14 24  1  0
 15 22  1  0
 16 18  1  0
 16 20  2  0
 17 19  1  0
 17 21  2  0
  1 25  1  0
  2 26  1  0
  3 27  1  0
  4 28  1  0
  5 29  1  0
  6 30  1  0
  7 31  1  0
  8 32  1  0
 13 33  1  0
 13 34  1  0
 14 35  1  0
 14 36  1  0
 15 37  1  0
 22 38  1  0
M  CHG  4  16   1  17   1  18  -1  19  -1
M  END
> <Name>
BR010560

$$$$
BR010561
  SciTegic05062102053D

 46 47  0  0  1  0            999 V2000
    2.7663   -0.3108    4.5007 C   0  0
    7.3457    1.2432   -0.2463 C   0  0
    1.8365   -0.9847    3.7089 C   0  0
    6.6317    2.2417   -0.9086 C   0  0
    3.2185    0.9533    4.1223 C   0  0
    6.7536    0.0026   -0.0095 C   0  0
    1.3590   -0.3946    2.5387 C   0  0
    5.3255    1.9998   -1.3341 C   0  0
    2.7411    1.5435    2.9521 C   0  0
    5.4474   -0.2394   -0.4350 C   0  0
    1.8113    0.8695    2.1603 C   0  0
    4.7334    0.7592   -1.0973 C   0  0
    3.2264    2.8638    2.5754 C   0  0
    4.8482   -1.5414   -0.1776 C   0  0
    5.0932    4.3409    2.7092 C   0  0
    4.8382   -3.3955    1.3214 C   0  0
    0.9523    0.5385   -0.0326 C   0  0
    2.5900    1.6733   -1.5727 C   0  0
    1.1440    1.2331   -1.3744 C   0  0  1  0  0  0
    2.5680    3.6938    1.9367 O   0  0
    3.9929   -2.0711   -0.8976 O   0  0
    0.8022    0.3036   -2.4052 O   0  0
    1.3292    1.4330    1.0089 O   0  0
    3.4508    0.5402   -1.5245 O   0  0
    4.5034    3.0734    3.0175 O   0  0
    5.3504   -2.1081    0.9611 O   0  0
    3.1379   -0.7707    5.4120 H   0  0
    8.3629    1.4320    0.0849 H   0  0
    1.4852   -1.9691    4.0038 H   0  0
    7.0931    3.2076   -1.0922 H   0  0
    3.9429    1.4694    4.7473 H   0  0
    7.3197   -0.7682    0.5071 H   0  0
    0.6347   -0.9249    1.9265 H   0  0
    4.7749    2.7819   -1.8497 H   0  0
    6.1067    4.3805    3.1156 H   0  0
    4.4852    5.1409    3.1391 H   0  0
    5.1334    4.4597    1.6238 H   0  0
    5.3175   -3.7342    2.2432 H   0  0
    5.0343   -4.1056    0.5140 H   0  0
    3.7603   -3.3172    1.4813 H   0  0
    1.5825   -0.3536    0.0460 H   0  0
   -0.0952    0.2611    0.1216 H   0  0
    2.9082    2.3738   -0.7943 H   0  0
    2.7281    2.1452   -2.5506 H   0  0
    0.4552    2.0798   -1.4720 H   0  0
   -0.1236    0.0609   -2.2566 H   0  0
  1  3  2  0
  1  5  1  0
  2  4  1  0
  2  6  2  0
  3  7  1  0
  4  8  2  0
  5  9  2  0
  6 10  1  0
  7 11  2  0
  8 12  1  0
  9 11  1  0
  9 13  1  0
 10 12  2  0
 10 14  1  0
 11 23  1  0
 12 24  1  0
 13 20  2  0
 13 25  1  0
 14 21  2  0
 14 26  1  0
 15 25  1  0
 16 26  1  0
 17 19  1  0
 17 23  1  0
 18 19  1  0
 18 24  1  0
 19 22  1  0
  1 27  1  0
  2 28  1  0
  3 29  1  0
  4 30  1  0
  5 31  1  0
  6 32  1  0
  7 33  1  0
  8 34  1  0
 15 35  1  0
 15 36  1  0
 15 37  1  0
 16 38  1  0
 16 39  1  0
 16 40  1  0
 17 41  1  0
 17 42  1  0
 18 43  1  0
 18 44  1  0
 19 45  1  0
 22 46  1  0
M  END
> <Name>
BR010561

$$$$
BR010562
  SciTegic05062102053D

 46 47  0  0  1  0            999 V2000
   -2.0779   -2.8698    1.2959 C   0  0
    6.6497    2.2157   -0.8892 C   0  0
   -1.2262   -3.2423    2.3358 C   0  0
    7.3461    1.2049   -0.2267 C   0  0
   -1.8066   -1.7234    0.5489 C   0  0
    5.3433    1.9929   -1.3244 C   0  0
    0.1679   -1.3220    1.8820 C   0  0
    5.4298   -0.2517   -0.4349 C   0  0
   -0.1034   -2.4684    2.6289 C   0  0
    6.7361   -0.0289    0.0004 C   0  0
   -0.6838   -0.9495    0.8420 C   0  0
    4.7334    0.7592   -1.0973 C   0  0
    0.7851   -2.8565    3.7131 C   0  0
    7.4618   -1.0832    0.6913 C   0  0
    3.0460   -2.7892    4.4717 C   0  0
    7.2144   -2.9782    2.1193 C   0  0
    0.9523    0.5385   -0.0326 C   0  0
    2.5900    1.6733   -1.5727 C   0  0
    1.1440    1.2331   -1.3744 C   0  0  1  0  0  0
    0.4258   -3.4683    4.7278 O   0  0
    8.6908   -1.2281    0.6531 O   0  0
    0.8022    0.3036   -2.4052 O   0  0
   -0.4172    0.1761    0.1088 O   0  0
    3.4508    0.5402   -1.5245 O   0  0
    2.0732   -2.4624    3.4734 O   0  0
    6.6168   -1.8988    1.3931 O   0  0
   -2.9521   -3.4724    1.0678 H   0  0
    7.1247    3.1762   -1.0659 H   0  0
   -1.4463   -4.1379    2.9109 H   0  0
    8.3631    1.3893    0.1091 H   0  0
   -2.4738   -1.4384   -0.2600 H   0  0
    4.8060    2.7843   -1.8398 H   0  0
    1.0425   -0.7153    2.1060 H   0  0
    4.9492   -1.2117   -0.2598 H   0  0
    4.0265   -2.4209    4.1603 H   0  0
    3.0787   -3.8729    4.6089 H   0  0
    2.7627   -2.3130    5.4134 H   0  0
    6.4359   -3.5484    2.6321 H   0  0
    7.9271   -2.5794    2.8456 H   0  0
    7.7389   -3.6312    1.4178 H   0  0
    1.2120    1.2024    0.7986 H   0  0
    1.5525   -0.3749    0.0276 H   0  0
    2.9082    2.3738   -0.7943 H   0  0
    2.7281    2.1452   -2.5506 H   0  0
    0.4552    2.0798   -1.4720 H   0  0
   -0.1236    0.0609   -2.2566 H   0  0
  1  3  2  0
  1  5  1  0
  2  4  1  0
  2  6  2  0
  3  9  1  0
  4 10  2  0
  5 11  2  0
  6 12  1  0
  7  9  2  0
  7 11  1  0
  8 10  1  0
  8 12  2  0
  9 13  1  0
 10 14  1  0
 11 23  1  0
 12 24  1  0
 13 20  2  0
 13 25  1  0
 14 21  2  0
 14 26  1  0
 15 25  1  0
 16 26  1  0
 17 19  1  0
 17 23  1  0
 18 19  1  0
 18 24  1  0
 19 22  1  0
  1 27  1  0
  2 28  1  0
  3 29  1  0
  4 30  1  0
  5 31  1  0
  6 32  1  0
  7 33  1  0
  8 34  1  0
 15 35  1  0
 15 36  1  0
 15 37  1  0
 16 38  1  0
 16 39  1  0
 16 40  1  0
 17 41  1  0
 17 42  1  0
 18 43  1  0
 18 44  1  0
 19 45  1  0
 22 46  1  0
M  END
> <Name>
BR010562

$$$$
BR010563
  SciTegic05062102053D

 46 47  0  0  0  0            999 V2000
    0.3114   -2.5178    2.7046 C   0  0
    1.6953   -3.9492    1.3360 C   0  0
    0.2561   -3.2513   -4.6326 C   0  0
   -1.5470   -3.7221   -3.0950 C   0  0
    0.6763   -1.4199    1.9255 C   0  0
    2.0602   -2.8513    0.5568 C   0  0
    0.3889   -1.9749   -4.0860 C   0  0
   -1.4142   -2.4457   -2.5484 C   0  0
    0.8209   -3.7824    2.4099 C   0  0
   -0.7120   -4.1249   -4.1371 C   0  0
    1.5507   -1.5866    0.8515 C   0  0
   -0.4462   -1.5721   -3.0439 C   0  0
    0.4404   -4.9273    3.2220 C   0  0
   -0.8505   -5.4558   -4.7067 C   0  0
    0.0846   -7.2861    3.1839 C   0  0
   -1.4769   -7.7061   -4.2208 C   0  0
    0.9523    0.5385   -0.0326 C   0  0
    0.9856    0.2573   -2.5348 C   0  0
    1.1440    1.2331   -1.3744 C   0  0
    0.1470   -4.8671    4.4234 O   0  0
   -0.5934   -5.7443   -5.8830 O   0  0
    2.4671    1.7733   -1.4064 O   0  0
    1.9094   -0.5089    0.0865 O   0  0
   -0.3162   -0.3189   -2.5072 O   0  0
    0.4447   -6.0851    2.4930 O   0  0
   -1.3006   -6.3557   -3.7794 O   0  0
   -0.3710   -2.3758    3.5387 H   0  0
    2.0977   -4.9305    1.0980 H   0  0
    0.9127   -3.5543   -5.4441 H   0  0
   -2.3043   -4.3955   -2.7016 H   0  0
    0.2762   -0.4374    2.1601 H   0  0
    2.7420   -2.9872   -0.2783 H   0  0
    1.1447   -1.2989   -4.4764 H   0  0
   -2.0678   -2.1374   -1.7369 H   0  0
    0.1277   -8.1317    2.4931 H   0  0
   -0.9249   -7.1850    3.5904 H   0  0
    0.7899   -7.4507    4.0020 H   0  0
   -1.8375   -8.3176   -3.3900 H   0  0
   -0.5251   -8.0973   -4.5889 H   0  0
   -2.2124   -7.7229   -5.0286 H   0  0
   -0.0450    0.0930    0.0448 H   0  0
    1.1073    1.2349    0.7974 H   0  0
    1.7168   -0.5552   -2.4807 H   0  0
    1.0950    0.7675   -3.4970 H   0  0
    0.4552    2.0798   -1.4720 H   0  0
    3.0699    1.0224   -1.3025 H   0  0
  1  5  2  0
  1  9  1  0
  2  6  1  0
  2  9  2  0
  3  7  2  0
  3 10  1  0
  4  8  1  0
  4 10  2  0
  5 11  1  0
  6 11  2  0
  7 12  1  0
  8 12  2  0
  9 13  1  0
 10 14  1  0
 11 23  1  0
 12 24  1  0
 13 20  2  0
 13 25  1  0
 14 21  2  0
 14 26  1  0
 15 25  1  0
 16 26  1  0
 17 19  1  0
 17 23  1  0
 18 19  1  0
 18 24  1  0
 19 22  1  0
  1 27  1  0
  2 28  1  0
  3 29  1  0
  4 30  1  0
  5 31  1  0
  6 32  1  0
  7 33  1  0
  8 34  1  0
 15 35  1  0
 15 36  1  0
 15 37  1  0
 16 38  1  0
 16 39  1  0
 16 40  1  0
 17 41  1  0
 17 42  1  0
 18 43  1  0
 18 44  1  0
 19 45  1  0
 22 46  1  0
M  END
> <Name>
BR010563

$$$$
BR010564
  SciTegic05062102053D

 42 43  0  0  1  0            999 V2000
    2.7798   -0.3013    4.4999 C   0  0
    7.3491    1.2245   -0.2462 C   0  0
    1.8477   -0.9797    3.7147 C   0  0
    6.8573    1.8762   -1.3772 C   0  0
    3.2276    0.9625    4.1153 C   0  0
    6.5330    0.3400    0.4592 C   0  0
    1.3635   -0.3943    2.5449 C   0  0
    5.5495    1.6436   -1.8027 C   0  0
    2.7434    1.5479    2.9455 C   0  0
    5.2251    0.1075    0.0336 C   0  0
    1.8113    0.8695    2.1603 C   0  0
    4.7334    0.7592   -1.0973 C   0  0
    4.1420    3.4072    3.4381 C   0  0
    4.4695   -2.1272    0.3352 C   0  0
    0.9523    0.5385   -0.0326 C   0  0
    2.5900    1.6733   -1.5727 C   0  0
    1.1440    1.2331   -1.3744 C   0  0  1  0  0  0
    0.8022    0.3036   -2.4052 O   0  0
    3.1895    2.7821    2.5802 O   0  0
    4.4378   -0.7576    0.7318 O   0  0
    1.3292    1.4330    1.0089 O   0  0
    3.4508    0.5402   -1.5245 O   0  0
    3.1568   -0.7572    5.4111 H   0  0
    8.3677    1.4055    0.0851 H   0  0
    1.4992   -1.9636    4.0140 H   0  0
    7.4926    2.5647   -1.9262 H   0  0
    3.9538    1.4859    4.7316 H   0  0
    6.9222   -0.1646    1.3393 H   0  0
    0.6388   -0.9290    1.9370 H   0  0
    5.1722    2.1558   -2.6835 H   0  0
    4.4135    4.3845    3.0316 H   0  0
    5.0299    2.7753    3.5200 H   0  0
    3.6974    3.5375    4.4276 H   0  0
    3.7976   -2.7075    0.9723 H   0  0
    5.4901   -2.5087    0.4208 H   0  0
    4.1398   -2.2042   -0.7036 H   0  0
    1.5825   -0.3536    0.0460 H   0  0
   -0.0952    0.2611    0.1216 H   0  0
    2.9082    2.3738   -0.7943 H   0  0
    2.7281    2.1452   -2.5506 H   0  0
    0.4552    2.0798   -1.4720 H   0  0
   -0.1236    0.0609   -2.2566 H   0  0
  1  3  2  0
  1  5  1  0
  2  4  1  0
  2  6  2  0
  3  7  1  0
  4  8  2  0
  5  9  2  0
  6 10  1  0
  7 11  2  0
  8 12  1  0
  9 11  1  0
  9 19  1  0
 10 12  2  0
 10 20  1  0
 11 21  1  0
 12 22  1  0
 13 19  1  0
 14 20  1  0
 15 17  1  0
 15 21  1  0
 16 17  1  0
 16 22  1  0
 17 18  1  0
  1 23  1  0
  2 24  1  0
  3 25  1  0
  4 26  1  0
  5 27  1  0
  6 28  1  0
  7 29  1  0
  8 30  1  0
 13 31  1  0
 13 32  1  0
 13 33  1  0
 14 34  1  0
 14 35  1  0
 14 36  1  0
 15 37  1  0
 15 38  1  0
 16 39  1  0
 16 40  1  0
 17 41  1  0
 18 42  1  0
M  END
> <Name>
BR010564

$$$$
BR010565
  SciTegic05062102053D

 42 43  0  0  1  0            999 V2000
    1.8636   -0.9690    3.7269 C   0  0
    6.5358    2.6555   -0.7356 C   0  0
    2.7962   -0.2811    4.5031 C   0  0
    7.1855    1.9581    0.2829 C   0  0
    1.3711   -0.3937    2.5554 C   0  0
    5.2908    2.2233   -1.1925 C   0  0
    2.7439    1.5575    2.9365 C   0  0
    5.3452    0.3962    0.3873 C   0  0
    3.2364    0.9822    4.1079 C   0  0
    6.5902    0.8284    0.8443 C   0  0
    1.8113    0.8695    2.1603 C   0  0
    4.6955    1.0936   -0.6312 C   0  0
    4.5519    2.9411    4.4043 C   0  0
    6.5601   -0.9990    2.3659 C   0  0
    0.9523    0.5385   -0.0326 C   0  0
    2.5900    1.6733   -1.5727 C   0  0
    1.1440    1.2331   -1.3744 C   0  0  1  0  0  0
    0.8022    0.3036   -2.4052 O   0  0
    4.1450    1.6541    4.8665 O   0  0
    7.2252    0.1470    1.8366 O   0  0
    1.3292    1.4330    1.0089 O   0  0
    3.4722    0.6709   -1.0786 O   0  0
    1.5210   -1.9526    4.0345 H   0  0
    6.9993    3.5351   -1.1726 H   0  0
    3.1761   -0.7340    5.4148 H   0  0
    8.1553    2.2992    0.6346 H   0  0
    0.6457   -0.9347    1.9540 H   0  0
    4.7887    2.7712   -1.9852 H   0  0
    3.0868    2.5421    2.6287 H   0  0
    4.8814   -0.4844    0.8246 H   0  0
    5.2780    3.3666    5.1013 H   0  0
    3.6790    3.5942    4.3270 H   0  0
    5.0138    2.8355    3.4198 H   0  0
    7.1750   -1.4486    3.1494 H   0  0
    6.3852   -1.7221    1.5652 H   0  0
    5.6021   -0.6895    2.7903 H   0  0
    1.5825   -0.3536    0.0460 H   0  0
   -0.0952    0.2611    0.1216 H   0  0
    2.8040    2.6052   -1.0402 H   0  0
    2.8179    1.8125   -2.6342 H   0  0
    0.4552    2.0798   -1.4720 H   0  0
   -0.1236    0.0609   -2.2566 H   0  0
  1  3  2  0
  1  5  1  0
  2  4  1  0
  2  6  2  0
  3  9  1  0
  4 10  2  0
  5 11  2  0
  6 12  1  0
  7  9  2  0
  7 11  1  0
  8 10  1  0
  8 12  2  0
  9 19  1  0
 10 20  1  0
 11 21  1  0
 12 22  1  0
 13 19  1  0
 14 20  1  0
 15 17  1  0
 15 21  1  0
 16 17  1  0
 16 22  1  0
 17 18  1  0
  1 23  1  0
  2 24  1  0
  3 25  1  0
  4 26  1  0
  5 27  1  0
  6 28  1  0
  7 29  1  0
  8 30  1  0
 13 31  1  0
 13 32  1  0
 13 33  1  0
 14 34  1  0
 14 35  1  0
 14 36  1  0
 15 37  1  0
 15 38  1  0
 16 39  1  0
 16 40  1  0
 17 41  1  0
 18 42  1  0
M  END
> <Name>
BR010565

$$$$
BR010566
  SciTegic05062102053D

 42 43  0  0  0  0            999 V2000
    1.6945   -3.9492    1.3359 C   0  0
    0.3107   -2.5175    2.7043 C   0  0
   -1.5463   -3.7224   -3.0949 C   0  0
    0.2568   -3.2513   -4.6323 C   0  0
    2.0599   -2.8514    0.5569 C   0  0
    0.6761   -1.4197    1.9253 C   0  0
   -1.4139   -2.4459   -2.5484 C   0  0
    0.3892   -1.9748   -4.0859 C   0  0
    0.8199   -3.7823    2.4096 C   0  0
   -0.7109   -4.1251   -4.1368 C   0  0
    1.5507   -1.5866    0.8515 C   0  0
   -0.4462   -1.5721   -3.0439 C   0  0
    1.0181   -6.1179    2.8114 C   0  0
   -1.8475   -6.2141   -4.1142 C   0  0
    0.9523    0.5385   -0.0326 C   0  0
    0.9856    0.2573   -2.5348 C   0  0
    1.1440    1.2331   -1.3744 C   0  0
    2.4671    1.7733   -1.4064 O   0  0
    0.4619   -4.8535    3.1690 O   0  0
   -0.8388   -5.3712   -4.6691 O   0  0
    1.9094   -0.5089    0.0865 O   0  0
   -0.3162   -0.3189   -2.5072 O   0  0
    2.0925   -4.9323    1.1001 H   0  0
   -0.3717   -2.3819    3.5390 H   0  0
   -2.3004   -4.3996   -2.7031 H   0  0
    0.9109   -3.5600   -5.4433 H   0  0
    2.7426   -2.9871   -0.2774 H   0  0
    0.2761   -0.4370    2.1594 H   0  0
   -2.0683   -2.1372   -1.7378 H   0  0
    1.1450   -1.2984   -4.4757 H   0  0
    0.6509   -6.8853    3.4972 H   0  0
    2.1086   -6.0636    2.8584 H   0  0
    0.7111   -6.3659    1.7926 H   0  0
   -1.8421   -7.1777   -4.6294 H   0  0
   -2.8240   -5.7358   -4.2237 H   0  0
   -1.6369   -6.3694   -3.0534 H   0  0
   -0.0450    0.0930    0.0448 H   0  0
    1.1073    1.2349    0.7974 H   0  0
    1.7168   -0.5552   -2.4807 H   0  0
    1.0950    0.7675   -3.4970 H   0  0
    0.4552    2.0798   -1.4720 H   0  0
    3.0699    1.0224   -1.3025 H   0  0
  1  5  2  0
  1  9  1  0
  2  6  1  0
  2  9  2  0
  3  7  2  0
  3 10  1  0
  4  8  1  0
  4 10  2  0
  5 11  1  0
  6 11  2  0
  7 12  1  0
  8 12  2  0
  9 19  1  0
 10 20  1  0
 11 21  1  0
 12 22  1  0
 13 19  1  0
 14 20  1  0
 15 17  1  0
 15 21  1  0
 16 17  1  0
 16 22  1  0
 17 18  1  0
  1 23  1  0
  2 24  1  0
  3 25  1  0
  4 26  1  0
  5 27  1  0
  6 28  1  0
  7 29  1  0
  8 30  1  0
 13 31  1  0
 13 32  1  0
 13 33  1  0
 14 34  1  0
 14 35  1  0
 14 36  1  0
 15 37  1  0
 15 38  1  0
 16 39  1  0
 16 40  1  0
 17 41  1  0
 18 42  1  0
M  END
> <Name>
BR010566

$$$$
BR010567
  SciTegic05062102053D

 40 41  0  0  1  0            999 V2000
    2.7739   -0.3083    4.4988 C   0  0
    7.3440    1.2395   -0.2391 C   0  0
    1.8421   -0.9834    3.7104 C   0  0
    6.6334    2.2389   -0.9037 C   0  0
    3.2244    0.9557    4.1179 C   0  0
    6.7494   -0.0002   -0.0037 C   0  0
    1.3608   -0.3945    2.5412 C   0  0
    5.3281    1.9988   -1.3327 C   0  0
    2.7431    1.5446    2.9487 C   0  0
    5.4441   -0.2403   -0.4328 C   0  0
    1.8113    0.8695    2.1603 C   0  0
    4.7334    0.7592   -1.0973 C   0  0
    3.2367    2.8978    2.5564 C   0  0
    4.8235   -1.5728   -0.1719 C   0  0
    0.9523    0.5385   -0.0326 C   0  0
    2.5900    1.6733   -1.5727 C   0  0
    1.1440    1.2331   -1.3744 C   0  0  1  0  0  0
    0.8022    0.3036   -2.4052 O   0  0
    1.3292    1.4330    1.0089 O   0  0
    3.4508    0.5402   -1.5245 O   0  0
    3.1495   -0.7667    5.4092 H   0  0
    8.3604    1.4261    0.0958 H   0  0
    1.4923   -1.9678    4.0069 H   0  0
    7.0965    3.2042   -1.0859 H   0  0
    3.9517    1.4728    4.7383 H   0  0
    7.3109   -0.7718    0.5163 H   0  0
    0.6350   -0.9253    1.9311 H   0  0
    4.7795    2.7814   -1.8499 H   0  0
    4.1274    2.8091    1.9232 H   0  0
    2.4699    3.4554    2.0042 H   0  0
    3.4937    3.4977    3.4385 H   0  0
    4.3063   -1.5689    0.7948 H   0  0
    4.0997   -1.8336   -0.9541 H   0  0
    5.5801   -2.3675   -0.1599 H   0  0
    1.5825   -0.3536    0.0460 H   0  0
   -0.0952    0.2611    0.1216 H   0  0
    2.9082    2.3738   -0.7943 H   0  0
    2.7281    2.1452   -2.5506 H   0  0
    0.4552    2.0798   -1.4720 H   0  0
   -0.1236    0.0609   -2.2566 H   0  0
  1  3  2  0
  1  5  1  0
  2  4  1  0
  2  6  2  0
  3  7  1  0
  4  8  2  0
  5  9  2  0
  6 10  1  0
  7 11  2  0
  8 12  1  0
  9 11  1  0
  9 13  1  0
 10 12  2  0
 10 14  1  0
 11 19  1  0
 12 20  1  0
 15 17  1  0
 15 19  1  0
 16 17  1  0
 16 20  1  0
 17 18  1  0
  1 21  1  0
  2 22  1  0
  3 23  1  0
  4 24  1  0
  5 25  1  0
  6 26  1  0
  7 27  1  0
  8 28  1  0
 13 29  1  0
 13 30  1  0
 13 31  1  0
 14 32  1  0
 14 33  1  0
 14 34  1  0
 15 35  1  0
 15 36  1  0
 16 37  1  0
 16 38  1  0
 17 39  1  0
 18 40  1  0
M  END
> <Name>
BR010567

$$$$
BR010568
  SciTegic05062102053D

 40 41  0  0  1  0            999 V2000
    1.8628   -0.9680    3.7280 C   0  0
    6.5368    2.6543   -0.7363 C   0  0
    2.7942   -0.2792    4.5049 C   0  0
    7.1870    1.9557    0.2811 C   0  0
    1.3713   -0.3937    2.5557 C   0  0
    5.2910    2.2232   -1.1924 C   0  0
    2.7427    1.5584    2.9371 C   0  0
    5.3456    0.3951    0.3862 C   0  0
    3.2342    0.9840    4.1094 C   0  0
    6.5914    0.8261    0.8423 C   0  0
    1.8113    0.8695    2.1603 C   0  0
    4.6955    1.0936   -0.6312 C   0  0
    4.2297    1.7206    4.9404 C   0  0
    7.2869    0.0791    1.9296 C   0  0
    0.9523    0.5385   -0.0326 C   0  0
    2.5900    1.6733   -1.5727 C   0  0
    1.1440    1.2331   -1.3744 C   0  0  1  0  0  0
    0.8022    0.3036   -2.4052 O   0  0
    1.3292    1.4330    1.0089 O   0  0
    3.4722    0.6709   -1.0786 O   0  0
    1.5207   -1.9517    4.0357 H   0  0
    7.0003    3.5340   -1.1728 H   0  0
    3.1711   -0.7345    5.4169 H   0  0
    8.1575    2.2989    0.6296 H   0  0
    0.6460   -0.9354    1.9550 H   0  0
    4.7898    2.7716   -1.9850 H   0  0
    3.0837    2.5432    2.6265 H   0  0
    4.8790   -0.4855    0.8216 H   0  0
    5.2500    1.4760    4.6205 H   0  0
    4.0907    2.8065    4.8595 H   0  0
    4.1278    1.4658    6.0034 H   0  0
    7.0033    0.4801    2.9104 H   0  0
    7.0342   -0.9889    1.9042 H   0  0
    8.3777    0.1498    1.8270 H   0  0
    1.5825   -0.3536    0.0460 H   0  0
   -0.0952    0.2611    0.1216 H   0  0
    2.8040    2.6052   -1.0402 H   0  0
    2.8179    1.8125   -2.6342 H   0  0
    0.4552    2.0798   -1.4720 H   0  0
   -0.1236    0.0609   -2.2566 H   0  0
  1  3  2  0
  1  5  1  0
  2  4  1  0
  2  6  2  0
  3  9  1  0
  4 10  2  0
  5 11  2  0
  6 12  1  0
  7  9  2  0
  7 11  1  0
  8 10  1  0
  8 12  2  0
  9 13  1  0
 10 14  1  0
 11 19  1  0
 12 20  1  0
 15 17  1  0
 15 19  1  0
 16 17  1  0
 16 20  1  0
 17 18  1  0
  1 21  1  0
  2 22  1  0
  3 23  1  0
  4 24  1  0
  5 25  1  0
  6 26  1  0
  7 27  1  0
  8 28  1  0
 13 29  1  0
 13 30  1  0
 13 31  1  0
 14 32  1  0
 14 33  1  0
 14 34  1  0
 15 35  1  0
 15 36  1  0
 16 37  1  0
 16 38  1  0
 17 39  1  0
 18 40  1  0
M  END
> <Name>
BR010568

$$$$
BR010569
  SciTegic05062102053D

 40 41  0  0  0  0            999 V2000
    0.3098   -2.5172    2.7039 C   0  0
    1.6923   -3.9496    1.3349 C   0  0
    0.2577   -3.2512   -4.6319 C   0  0
   -1.5445   -3.7235   -3.0937 C   0  0
    0.6763   -1.4194    1.9253 C   0  0
    2.0588   -2.8517    0.5563 C   0  0
    0.3891   -1.9744   -4.0860 C   0  0
   -1.4130   -2.4466   -2.5477 C   0  0
    0.8179   -3.7823    2.4087 C   0  0
   -0.7091   -4.1258   -4.1358 C   0  0
    1.5507   -1.5866    0.8515 C   0  0
   -0.4462   -1.5721   -3.0439 C   0  0
    0.4258   -4.9562    3.2406 C   0  0
   -0.8493   -5.4911   -4.7189 C   0  0
    0.9523    0.5385   -0.0326 C   0  0
    0.9856    0.2573   -2.5348 C   0  0
    1.1440    1.2331   -1.3744 C   0  0
    2.4671    1.7733   -1.4064 O   0  0
    1.9094   -0.5089    0.0865 O   0  0
   -0.3162   -0.3189   -2.5072 O   0  0
   -0.3719   -2.3777    3.5385 H   0  0
    2.0933   -4.9316    1.0976 H   0  0
    0.9127   -3.5562   -5.4436 H   0  0
   -2.3007   -4.3982   -2.7008 H   0  0
    0.2769   -0.4363    2.1601 H   0  0
    2.7399   -2.9886   -0.2788 H   0  0
    1.1445   -1.2977   -4.4766 H   0  0
   -2.0664   -2.1394   -1.7360 H   0  0
   -0.4732   -5.4321    2.8301 H   0  0
    1.2286   -5.7039    3.2785 H   0  0
    0.2196   -4.6590    4.2772 H   0  0
   -0.2075   -6.2025   -4.1848 H   0  0
   -1.8866   -5.8456   -4.6589 H   0  0
   -0.5714   -5.5013   -5.7810 H   0  0
   -0.0450    0.0930    0.0448 H   0  0
    1.1073    1.2349    0.7974 H   0  0
    1.7168   -0.5552   -2.4807 H   0  0
    1.0950    0.7675   -3.4970 H   0  0
    0.4552    2.0798   -1.4720 H   0  0
    3.0699    1.0224   -1.3025 H   0  0
  1  5  2  0
  1  9  1  0
  2  6  1  0
  2  9  2  0
  3  7  2  0
  3 10  1  0
  4  8  1  0
  4 10  2  0
  5 11  1  0
  6 11  2  0
  7 12  1  0
  8 12  2  0
  9 13  1  0
 10 14  1  0
 11 19  1  0
 12 20  1  0
 15 17  1  0
 15 19  1  0
 16 17  1  0
 16 20  1  0
 17 18  1  0
  1 21  1  0
  2 22  1  0
  3 23  1  0
  4 24  1  0
  5 25  1  0
  6 26  1  0
  7 27  1  0
  8 28  1  0
 13 29  1  0
 13 30  1  0
 13 31  1  0
 14 32  1  0
 14 33  1  0
 14 34  1  0
 15 35  1  0
 15 36  1  0
 16 37  1  0
 16 38  1  0
 17 39  1  0
 18 40  1  0
M  END
> <Name>
BR010569

$$$$
BR010570
  SciTegic05062102053D

 34 35  0  0  1  0            999 V2000
    1.8268   -0.9935    3.6984 C   0  0
    6.6225    2.2542   -0.9148 C   0  0
    2.7582   -0.3278    4.4953 C   0  0
    7.3433    1.2623   -0.2500 C   0  0
    1.3534   -0.3949    2.5309 C   0  0
    5.3175    2.0027   -1.3385 C   0  0
    3.2161    0.9365    4.1247 C   0  0
    6.7592    0.0188   -0.0089 C   0  0
    1.8113    0.8695    2.1603 C   0  0
    4.7334    0.7592   -1.0973 C   0  0
    2.7427    1.5352    2.9572 C   0  0
    5.4542   -0.2328   -0.4325 C   0  0
    0.9523    0.5385   -0.0326 C   0  0
    2.5900    1.6733   -1.5727 C   0  0
    1.1440    1.2331   -1.3744 C   0  0  1  0  0  0
    0.8022    0.3036   -2.4052 O   0  0
    1.3292    1.4330    1.0089 O   0  0
    3.4508    0.5402   -1.5245 O   0  0
    3.3262    3.0995    2.5231 Cl  0  0
    4.7569   -1.7796   -0.1209 Cl  0  0
    1.4703   -1.9780    3.9871 H   0  0
    7.0773    3.2224   -1.1026 H   0  0
    3.1267   -0.7941    5.4043 H   0  0
    8.3594    1.4583    0.0798 H   0  0
    0.6279   -0.9194    1.9149 H   0  0
    4.7619    2.7802   -1.8558 H   0  0
    3.9420    1.4423    4.7564 H   0  0
    7.3341   -0.7438    0.5105 H   0  0
    1.5825   -0.3536    0.0460 H   0  0
   -0.0952    0.2611    0.1216 H   0  0
    2.9082    2.3738   -0.7943 H   0  0
    2.7281    2.1452   -2.5506 H   0  0
    0.4552    2.0798   -1.4720 H   0  0
   -0.1236    0.0609   -2.2566 H   0  0
  1  3  2  0
  1  5  1  0
  2  4  1  0
  2  6  2  0
  3  7  1  0
  4  8  2  0
  5  9  2  0
  6 10  1  0
  7 11  2  0
  8 12  1  0
  9 11  1  0
  9 17  1  0
 10 12  2  0
 10 18  1  0
 11 19  1  0
 12 20  1  0
 13 15  1  0
 13 17  1  0
 14 15  1  0
 14 18  1  0
 15 16  1  0
  1 21  1  0
  2 22  1  0
  3 23  1  0
  4 24  1  0
  5 25  1  0
  6 26  1  0
  7 27  1  0
  8 28  1  0
 13 29  1  0
 13 30  1  0
 14 31  1  0
 14 32  1  0
 15 33  1  0
 16 34  1  0
M  END
> <Name>
BR010570

$$$$
BR010571
  SciTegic05062102053D

 34 35  0  0  1  0            999 V2000
    1.8615   -0.9671    3.7291 C   0  0
    6.5377    2.6530   -0.7374 C   0  0
    1.3714   -0.3937    2.5558 C   0  0
    5.2912    2.2232   -1.1923 C   0  0
    2.7914   -0.2772    4.5070 C   0  0
    7.1887    1.9531    0.2785 C   0  0
    2.7412    1.5594    2.9381 C   0  0
    5.3465    0.3938    0.3848 C   0  0
    1.8113    0.8695    2.1603 C   0  0
    4.6955    1.0936   -0.6312 C   0  0
    3.2313    0.9860    4.1114 C   0  0
    6.5931    0.8236    0.8396 C   0  0
    0.9523    0.5385   -0.0326 C   0  0
    2.5900    1.6733   -1.5727 C   0  0
    1.1440    1.2331   -1.3744 C   0  0  1  0  0  0
    0.8022    0.3036   -2.4052 O   0  0
    1.3292    1.4330    1.0089 O   0  0
    3.4722    0.6709   -1.0786 O   0  0
    4.3782    1.8360    5.0720 Cl  0  0
    7.3973   -0.0390    2.0926 Cl  0  0
    1.5184   -1.9505    4.0370 H   0  0
    7.0015    3.5323   -1.1748 H   0  0
    0.6473   -0.9358    1.9538 H   0  0
    4.7887    2.7725   -1.9838 H   0  0
    3.1651   -0.7366    5.4185 H   0  0
    8.1595    2.2999    0.6235 H   0  0
    3.0795    2.5437    2.6225 H   0  0
    4.8750   -0.4857    0.8174 H   0  0
    1.5825   -0.3536    0.0460 H   0  0
   -0.0952    0.2611    0.1216 H   0  0
    2.8040    2.6052   -1.0402 H   0  0
    2.8179    1.8125   -2.6342 H   0  0
    0.4552    2.0798   -1.4720 H   0  0
   -0.1236    0.0609   -2.2566 H   0  0
  1  3  1  0
  1  5  2  0
  2  4  2  0
  2  6  1  0
  3  9  2  0
  4 10  1  0
  5 11  1  0
  6 12  2  0
  7  9  1  0
  7 11  2  0
  8 10  2  0
  8 12  1  0
  9 17  1  0
 10 18  1  0
 11 19  1  0
 12 20  1  0
 13 15  1  0
 13 17  1  0
 14 15  1  0
 14 18  1  0
 15 16  1  0
  1 21  1  0
  2 22  1  0
  3 23  1  0
  4 24  1  0
  5 25  1  0
  6 26  1  0
  7 27  1  0
  8 28  1  0
 13 29  1  0
 13 30  1  0
 14 31  1  0
 14 32  1  0
 15 33  1  0
 16 34  1  0
M  END
> <Name>
BR010571

$$$$
BR010572
  SciTegic05062102053D

 34 35  0  0  0  0            999 V2000
    0.6763   -1.4198    1.9255 C   0  0
    2.0595   -2.8514    0.5564 C   0  0
    0.3890   -1.9748   -4.0860 C   0  0
   -1.4136   -2.4461   -2.5479 C   0  0
    0.3106   -2.5178    2.7041 C   0  0
    1.6939   -3.9494    1.3351 C   0  0
    0.2568   -3.2515   -4.6321 C   0  0
   -1.5458   -3.7228   -3.0940 C   0  0
    1.5507   -1.5866    0.8515 C   0  0
   -0.4462   -1.5721   -3.0439 C   0  0
    0.8194   -3.7826    2.4090 C   0  0
   -0.7106   -4.1255   -4.1361 C   0  0
    0.9523    0.5385   -0.0326 C   0  0
    0.9856    0.2573   -2.5348 C   0  0
    1.1440    1.2331   -1.3744 C   0  0
    2.4671    1.7733   -1.4064 O   0  0
    1.9094   -0.5089    0.0865 O   0  0
   -0.3162   -0.3189   -2.5072 O   0  0
    0.3673   -5.1375    3.3687 Cl  0  0
   -0.8729   -5.7011   -4.8087 Cl  0  0
    0.2760   -0.4376    2.1605 H   0  0
    2.7407   -2.9877   -0.2790 H   0  0
    1.1448   -1.2992   -4.4767 H   0  0
   -2.0667   -2.1382   -1.7360 H   0  0
   -0.3726   -2.3734    3.5375 H   0  0
    2.0973   -4.9294    1.0931 H   0  0
    0.9151   -3.5525   -5.4433 H   0  0
   -2.3034   -4.3938   -2.6970 H   0  0
   -0.0450    0.0930    0.0448 H   0  0
    1.1073    1.2349    0.7974 H   0  0
    1.7168   -0.5552   -2.4807 H   0  0
    1.0950    0.7675   -3.4970 H   0  0
    0.4552    2.0798   -1.4720 H   0  0
    3.0699    1.0224   -1.3025 H   0  0
  1  5  2  0
  1  9  1  0
  2  6  1  0
  2  9  2  0
  3  7  1  0
  3 10  2  0
  4  8  2  0
  4 10  1  0
  5 11  1  0
  6 11  2  0
  7 12  2  0
  8 12  1  0
  9 17  1  0
 10 18  1  0
 11 19  1  0
 12 20  1  0
 13 15  1  0
 13 17  1  0
 14 15  1  0
 14 18  1  0
 15 16  1  0
  1 21  1  0
  2 22  1  0
  3 23  1  0
  4 24  1  0
  5 25  1  0
  6 26  1  0
  7 27  1  0
  8 28  1  0
 13 29  1  0
 13 30  1  0
 14 31  1  0
 14 32  1  0
 15 33  1  0
 16 34  1  0
M  END
> <Name>
BR010572

$$$$
BR010573
  SciTegic05062102053D

 34 35  0  0  0  0            999 V2000
    0.8181   -3.7834    2.4073 C   0  0
   -0.7097   -4.1264   -4.1342 C   0  0
    0.3101   -2.5186    2.7034 C   0  0
    1.6926   -3.9498    1.3334 C   0  0
    0.2570   -3.2523   -4.6312 C   0  0
   -1.5448   -3.7233   -3.0921 C   0  0
    0.6763   -1.4202    1.9255 C   0  0
    2.0588   -2.8515    0.5555 C   0  0
    0.3888   -1.9752   -4.0861 C   0  0
   -1.4130   -2.4462   -2.5469 C   0  0
    1.5507   -1.5866    0.8515 C   0  0
   -0.4462   -1.5721   -3.0439 C   0  0
    0.9523    0.5385   -0.0326 C   0  0
    0.9856    0.2573   -2.5348 C   0  0
    1.1440    1.2331   -1.3744 C   0  0
    2.4671    1.7733   -1.4064 O   0  0
    1.9094   -0.5089    0.0865 O   0  0
   -0.3162   -0.3189   -2.5072 O   0  0
    0.5336   -4.6387    3.0131 H   0  0
   -0.8130   -5.1207   -4.5589 H   0  0
   -0.3710   -2.3888    3.5395 H   0  0
    2.0880   -4.9351    1.1035 H   0  0
    0.9074   -3.5661   -5.4426 H   0  0
   -2.2974   -4.4045   -2.7057 H   0  0
    0.2758   -0.4378    2.1606 H   0  0
    2.7390   -2.9874   -0.2810 H   0  0
    1.1448   -1.2996   -4.4767 H   0  0
   -2.0650   -2.1383   -1.7341 H   0  0
   -0.0450    0.0930    0.0448 H   0  0
    1.1073    1.2349    0.7974 H   0  0
    1.7168   -0.5552   -2.4807 H   0  0
    1.0950    0.7675   -3.4970 H   0  0
    0.4552    2.0798   -1.4720 H   0  0
    3.0699    1.0224   -1.3025 H   0  0
  1  3  1  0
  1  4  2  0
  2  5  1  0
  2  6  2  0
  3  7  2  0
  4  8  1  0
  5  9  2  0
  6 10  1  0
  7 11  1  0
  8 11  2  0
  9 12  1  0
 10 12  2  0
 11 17  1  0
 12 18  1  0
 13 15  1  0
 13 17  1  0
 14 15  1  0
 14 18  1  0
 15 16  1  0
  1 19  1  0
  2 20  1  0
  3 21  1  0
  4 22  1  0
  5 23  1  0
  6 24  1  0
  7 25  1  0
  8 26  1  0
  9 27  1  0
 10 28  1  0
 13 29  1  0
 13 30  1  0
 14 31  1  0
 14 32  1  0
 15 33  1  0
 16 34  1  0
M  END
> <Name>
BR010573

$$$$
BR010574
  SciTegic05062102053D

 46 49  0  0  0  0            999 V2000
    3.9467  -11.1693    3.2477 C   0  0
    3.5879  -14.0584   -3.1267 C   0  0
    4.7192  -11.8580    2.3172 C   0  0
    2.6087  -13.3988   -2.3898 C   0  0
    3.7474   -9.7953    3.1099 C   0  0
    4.5424  -13.3260   -3.8331 C   0  0
    5.2953  -11.1755    1.2454 C   0  0
    2.5801  -12.0044   -2.3565 C   0  0
    4.1294   -7.7093    1.8830 C   0  0
    5.4816  -11.1686   -4.5160 C   0  0
    4.7055   -7.0268    0.8112 C   0  0
    5.4531   -9.7742   -4.4828 C   0  0
    5.6775   -9.0895    0.0186 C   0  0
    3.5193   -9.8470   -3.0394 C   0  0
    4.3196   -9.0922    2.0373 C   0  0
    4.5288  -11.9218   -3.8109 C   0  0
    5.1052   -9.7926    1.0911 C   0  0
    3.5330  -11.2511   -3.0616 C   0  0
    5.4781   -7.7156   -0.1192 C   0  0
    4.4738   -9.1146   -3.7459 C   0  0
    5.3444   -5.9007   -1.6503 C   0  0
    5.6978   -7.0782   -3.8481 C   0  0
    5.6448   -5.7324   -3.1339 C   0  0
    6.9195   -5.0973   -3.2566 O   0  0
    6.0392   -7.0483   -1.1644 O   0  0
    4.4474   -7.7458   -3.7141 O   0  0
    3.4992  -11.7012    4.0821 H   0  0
    3.6090  -15.1439   -3.1526 H   0  0
    4.8741  -12.9278    2.4246 H   0  0
    1.8658  -13.9693   -1.8397 H   0  0
    3.1404   -9.2765    3.8489 H   0  0
    5.2986  -13.8617   -4.4030 H   0  0
    5.8959  -11.7343    0.5306 H   0  0
    1.8051  -11.5101   -1.7744 H   0  0
    3.5298   -7.1505    2.5987 H   0  0
    6.2558  -11.6632   -5.0992 H   0  0
    4.5474   -5.9566    0.7091 H   0  0
    6.1986   -9.2088   -5.0353 H   0  0
    6.2842   -9.6133   -0.7180 H   0  0
    2.7603   -9.3158   -2.4678 H   0  0
    4.2744   -6.0572   -1.4773 H   0  0
    5.6841   -5.0316   -1.0783 H   0  0
    6.4743   -7.7261   -3.4294 H   0  0
    5.8846   -6.9494   -4.9189 H   0  0
    4.9131   -5.0642   -3.6020 H   0  0
    7.5584   -5.6843   -2.8261 H   0  0
  1  3  1  0
  1  5  2  0
  2  4  1  0
  2  6  2  0
  3  7  2  0
  4  8  2  0
  5 15  1  0
  6 16  1  0
  7 17  1  0
  8 18  1  0
  9 11  1  0
  9 15  2  0
 10 12  1  0
 10 16  2  0
 11 19  2  0
 12 20  2  0
 13 17  2  0
 13 19  1  0
 14 18  2  0
 14 20  1  0
 15 17  1  0
 16 18  1  0
 19 25  1  0
 20 26  1  0
 21 23  1  0
 21 25  1  0
 22 23  1  0
 22 26  1  0
 23 24  1  0
  1 27  1  0
  2 28  1  0
  3 29  1  0
  4 30  1  0
  5 31  1  0
  6 32  1  0
  7 33  1  0
  8 34  1  0
  9 35  1  0
 10 36  1  0
 11 37  1  0
 12 38  1  0
 13 39  1  0
 14 40  1  0
 21 41  1  0
 21 42  1  0
 22 43  1  0
 22 44  1  0
 23 45  1  0
 24 46  1  0
M  END
> <Name>
BR010574

$$$$
BR010575
  SciTegic05062102053D

 44 45  0  0  1  0            999 V2000
    1.8615   -0.9683    3.7277 C   0  0
    6.5366    2.6545   -0.7375 C   0  0
    2.7926   -0.2797    4.5053 C   0  0
    7.1875    1.9560    0.2794 C   0  0
    1.3709   -0.3937    2.5551 C   0  0
    5.2905    2.2233   -1.1928 C   0  0
    2.7423    1.5582    2.9379 C   0  0
    5.3464    0.3951    0.3857 C   0  0
    3.2329    0.9835    4.1104 C   0  0
    6.5924    0.8263    0.8410 C   0  0
    1.8113    0.8695    2.1603 C   0  0
    4.6955    1.0936   -0.6312 C   0  0
   -0.5231   -0.6090   -4.3703 C   0  0
    0.9523    0.5385   -0.0326 C   0  0
    2.5900    1.6733   -1.5727 C   0  0
    1.1440    1.2331   -1.3744 C   0  0  1  0  0  0
    4.1812    1.6843    4.9018 N   0  3
    7.2549    0.1156    1.8767 N   0  3
    4.6101    1.1491    5.9525 O   0  5
    8.3748    0.5208    2.2718 O   0  5
    4.5643    2.8192    4.5284 O   0  0
    6.7021   -0.8977    2.3684 O   0  0
   -1.4270    1.3589   -2.9003 O   0  0
   -1.3096   -0.9668   -1.8995 O   0  0
    1.3292    1.4330    1.0089 O   0  0
    3.4722    0.6709   -1.0786 O   0  0
    0.8022    0.3036   -2.4052 O   0  0
   -0.7729    0.0747   -2.7518 S   0  0
    1.5182   -1.9517    4.0354 H   0  0
    7.0001    3.5338   -1.1752 H   0  0
    3.1671   -0.7391    5.4170 H   0  0
    8.1584    2.3029    0.6252 H   0  0
    0.6461   -0.9350    1.9533 H   0  0
    4.7881    2.7715   -1.9850 H   0  0
    3.0805    2.5433    2.6243 H   0  0
    4.8769   -0.4855    0.8184 H   0  0
   -0.0304   -1.5767   -4.2630 H   0  0
   -1.4967   -0.7265   -4.8485 H   0  0
    0.1033    0.0779   -4.9413 H   0  0
    1.5825   -0.3536    0.0460 H   0  0
   -0.0952    0.2611    0.1216 H   0  0
    2.8040    2.6052   -1.0402 H   0  0
    2.8179    1.8125   -2.6342 H   0  0
    0.4552    2.0798   -1.4720 H   0  0
  1  3  1  0
  1  5  2  0
  2  4  2  0
  2  6  1  0
  3  9  2  0
  4 10  1  0
  5 11  1  0
  6 12  2  0
  7  9  1  0
  7 11  2  0
  8 10  2  0
  8 12  1  0
  9 17  1  0
 10 18  1  0
 11 25  1  0
 12 26  1  0
 13 28  1  0
 14 16  1  0
 14 25  1  0
 15 16  1  0
 15 26  1  0
 16 27  1  0
 17 19  1  0
 17 21  2  0
 18 20  1  0
 18 22  2  0
 23 28  2  0
 24 28  2  0
 27 28  1  0
  1 29  1  0
  2 30  1  0
  3 31  1  0
  4 32  1  0
  5 33  1  0
  6 34  1  0
  7 35  1  0
  8 36  1  0
 13 37  1  0
 13 38  1  0
 13 39  1  0
 14 40  1  0
 14 41  1  0
 15 42  1  0
 15 43  1  0
 16 44  1  0
M  CHG  4  17   1  18   1  19  -1  20  -1
M  END
> <Name>
BR010575

$$$$
BR010576
  SciTegic05062102053D

 52 55  0  0  1  0            999 V2000
    6.8947   -4.6657   -4.3643 C   0  0
    8.8768    5.0037   -0.1023 C   0  0
    7.0811   -4.3265   -3.0275 C   0  0
    8.5800    3.7641   -0.6610 C   0  0
    2.5901   -2.3982   -4.3396 C   0  0
    4.5593    5.0266    2.1407 C   0  0
    5.7327   -4.2731   -5.0291 C   0  0
    7.9541    5.6315    0.7349 C   0  0
    6.1061   -3.5934   -2.3503 C   0  0
    7.3593    3.1475   -0.3846 C   0  0
    3.5651   -3.1312   -5.0167 C   0  0
    5.7800    5.6430    1.8645 C   0  0
    2.7764   -2.0590   -3.0028 C   0  0
    4.2625    3.7870    1.5820 C   0  0
    4.7408   -3.5348   -4.3632 C   0  0
    6.7205    5.0256    1.0240 C   0  0
    4.9303   -3.1899   -3.0038 C   0  0
    6.4187    3.7650    0.4558 C   0  0
    3.9384   -2.4516   -2.3379 C   0  0
    5.1852    3.1591    0.7448 C   0  0
    8.7123   -1.2028    0.1694 C   0  0
    4.0685   -0.7017   -0.7327 C   0  0
    4.5826    0.8938    1.1466 C   0  0
    4.9085   -0.4541    0.5134 C   0  0  2  0  0  0
    7.0399   -1.8622    2.0718 O   0  0
    7.7840    0.5527    1.8746 O   0  0
    4.0768   -2.0957   -1.0265 O   0  0
    4.8487    1.9404    0.2185 O   0  0
    6.2845   -0.4584    0.1259 O   0  0
    7.4123   -0.7120    1.2734 S   0  0
    7.6541   -5.2364   -4.8908 H   0  0
    9.8273    5.4831   -0.3178 H   0  0
    7.9860   -4.6325   -2.5106 H   0  0
    9.2989    3.2760   -1.3126 H   0  0
    1.6852   -2.0923   -4.8567 H   0  0
    3.8406    5.5149    2.7924 H   0  0
    5.6083   -4.5493   -6.0741 H   0  0
    8.2073    6.6003    1.1606 H   0  0
    6.2832   -3.3450   -1.3062 H   0  0
    7.1590    2.1790   -0.8375 H   0  0
    3.3983   -3.3851   -6.0615 H   0  0
    5.9908    6.6120    2.3122 H   0  0
    2.0120   -1.4879   -2.4827 H   0  0
    3.3094    3.3136    1.8023 H   0  0
    8.9960   -0.3391   -0.4341 H   0  0
    9.5586   -1.5473    0.7656 H   0  0
    8.3391   -2.0073   -0.4659 H   0  0
    4.4789   -0.1729   -1.5994 H   0  0
    3.0298   -0.3948   -0.5751 H   0  0
    5.1850    1.0743    2.0424 H   0  0
    3.5232    0.9581    1.4143 H   0  0
    4.7810   -1.2709    1.2328 H   0  0
  1  3  1  0
  1  7  2  0
  2  4  1  0
  2  8  2  0
  3  9  2  0
  4 10  2  0
  5 11  2  0
  5 13  1  0
  6 12  1  0
  6 14  2  0
  7 15  1  0
  8 16  1  0
  9 17  1  0
 10 18  1  0
 11 15  1  0
 12 16  2  0
 13 19  2  0
 14 20  1  0
 15 17  2  0
 16 18  1  0
 17 19  1  0
 18 20  2  0
 19 27  1  0
 20 28  1  0
 21 30  1  0
 22 24  1  0
 22 27  1  0
 23 24  1  0
 23 28  1  0
 24 29  1  0
 25 30  2  0
 26 30  2  0
 29 30  1  0
  1 31  1  0
  2 32  1  0
  3 33  1  0
  4 34  1  0
  5 35  1  0
  6 36  1  0
  7 37  1  0
  8 38  1  0
  9 39  1  0
 10 40  1  0
 11 41  1  0
 12 42  1  0
 13 43  1  0
 14 44  1  0
 21 45  1  0
 21 46  1  0
 21 47  1  0
 22 48  1  0
 22 49  1  0
 23 50  1  0
 23 51  1  0
 24 52  1  0
M  END
> <Name>
BR010576

$$$$
BR010577
  SciTegic05062102053D

 42 43  0  0  1  0            999 V2000
   -2.5864    1.8447    0.8647 C   0  0
    3.8754   -1.4058   -3.5478 C   0  0
   -1.8781   -0.0273    3.9975 C   0  0
    6.8949    0.7422   -3.8471 C   0  0
   -0.8134   -0.8361    3.6003 C   0  0
    6.6619    1.6857   -2.8466 C   0  0
   -2.4596    0.8566    3.0884 C   0  0
    5.9699   -0.2770   -4.0737 C   0  0
   -0.3301   -0.7610    2.2940 C   0  0
    5.5040    1.6100   -2.0725 C   0  0
   -1.9763    0.9316    1.7821 C   0  0
    4.8120   -0.3527   -3.2997 C   0  0
   -0.9115    0.1228    1.3849 C   0  0
    4.5790    0.5908   -2.2991 C   0  0
   -0.4389   -0.5526   -4.4491 C   0  0
    0.9523    0.5385   -0.0326 C   0  0
    2.5900    1.6733   -1.5727 C   0  0
    1.1440    1.2331   -1.3744 C   0  0  1  0  0  0
   -3.0813    2.5852    0.1206 N   0  0
    3.1159   -2.2599   -3.7490 N   0  0
    1.6464    1.0143   -4.6658 O   0  0
   -0.5165    1.9693   -3.7527 O   0  0
   -0.4172    0.1761    0.1088 O   0  0
    3.4508    0.5402   -1.5245 O   0  0
    0.8022    0.3036   -2.4052 O   0  0
    0.4348    0.8843   -3.8821 S   0  0
   -2.2543   -0.0859    5.0147 H   0  0
    7.7966    0.8013   -4.4497 H   0  0
   -0.3607   -1.5242    4.3082 H   0  0
    7.3822    2.4792   -2.6702 H   0  0
   -3.2889    1.4801    3.4141 H   0  0
    6.1666   -1.0046   -4.8577 H   0  0
    0.4997   -1.3941    1.9915 H   0  0
    5.3291    2.3485   -1.2948 H   0  0
   -1.3525   -0.6543   -3.8612 H   0  0
   -0.6768   -0.4165   -5.5051 H   0  0
    0.2038   -1.4233   -4.3107 H   0  0
    1.2120    1.2024    0.7986 H   0  0
    1.5525   -0.3749    0.0276 H   0  0
    2.9082    2.3738   -0.7943 H   0  0
    2.7281    2.1452   -2.5506 H   0  0
    0.4552    2.0798   -1.4720 H   0  0
  1 11  1  0
  1 19  3  0
  2 12  1  0
  2 20  3  0
  3  5  2  0
  3  7  1  0
  4  6  1  0
  4  8  2  0
  5  9  1  0
  6 10  2  0
  7 11  2  0
  8 12  1  0
  9 13  2  0
 10 14  1  0
 11 13  1  0
 12 14  2  0
 13 23  1  0
 14 24  1  0
 15 26  1  0
 16 18  1  0
 16 23  1  0
 17 18  1  0
 17 24  1  0
 18 25  1  0
 21 26  2  0
 22 26  2  0
 25 26  1  0
  3 27  1  0
  4 28  1  0
  5 29  1  0
  6 30  1  0
  7 31  1  0
  8 32  1  0
  9 33  1  0
 10 34  1  0
 15 35  1  0
 15 36  1  0
 15 37  1  0
 16 38  1  0
 16 39  1  0
 17 40  1  0
 17 41  1  0
 18 42  1  0
M  END
> <Name>
BR010577

$$$$
BR010578
  SciTegic05062102053D

 42 43  0  0  1  0            999 V2000
    2.2139   -5.2449    1.0359 C   0  0
   -2.5357   -4.6190   -2.5889 C   0  0
    0.3103   -2.5157    2.7050 C   0  0
    0.2579   -3.2499   -4.6333 C   0  0
    0.8187   -3.7808    2.4112 C   0  0
   -0.7094   -4.1246   -4.1385 C   0  0
    0.6762   -1.4185    1.9252 C   0  0
    0.3895   -1.9736   -4.0860 C   0  0
    2.0592   -2.8519    0.5577 C   0  0
   -1.4135   -2.4468   -2.5491 C   0  0
    1.6932   -3.9490    1.3376 C   0  0
   -1.5451   -3.7231   -3.0964 C   0  0
    1.5507   -1.5866    0.8515 C   0  0
   -0.4462   -1.5721   -3.0439 C   0  0
    4.2394    3.5771   -1.6425 C   0  0
    0.9523    0.5385   -0.0326 C   0  0
    0.9856    0.2573   -2.5348 C   0  0
    1.1440    1.2331   -1.3744 C   0  0  2  0  0  0
    2.6368   -6.2974    0.7909 N   0  0
   -3.3403   -5.3467   -2.1767 N   0  0
    1.7623    3.9807   -2.3854 O   0  0
    3.2034    2.3889   -3.7320 O   0  0
    1.9094   -0.5089    0.0865 O   0  0
   -0.3162   -0.3189   -2.5072 O   0  0
    2.4671    1.7733   -1.4064 O   0  0
    2.7923    2.9653   -2.4679 S   0  0
   -0.3703   -2.3845    3.5412 H   0  0
    0.9084   -3.5622   -5.4450 H   0  0
    0.5239   -4.6263    3.0284 H   0  0
   -0.7995   -5.1163   -4.5756 H   0  0
    0.2768   -0.4354    2.1588 H   0  0
    1.1450   -1.2966   -4.4754 H   0  0
    2.7416   -2.9735   -0.2811 H   0  0
   -2.0618   -2.1248   -1.7366 H   0  0
    5.0180    2.8151   -1.7023 H   0  0
    4.5604    4.4919   -2.1431 H   0  0
    3.9822    3.7803   -0.6020 H   0  0
   -0.0450    0.0930    0.0448 H   0  0
    1.1073    1.2349    0.7974 H   0  0
    1.7168   -0.5552   -2.4807 H   0  0
    1.0950    0.7675   -3.4970 H   0  0
    0.4552    2.0798   -1.4720 H   0  0
  1 11  1  0
  1 19  3  0
  2 12  1  0
  2 20  3  0
  3  5  1  0
  3  7  2  0
  4  6  2  0
  4  8  1  0
  5 11  2  0
  6 12  1  0
  7 13  1  0
  8 14  2  0
  9 11  1  0
  9 13  2  0
 10 12  2  0
 10 14  1  0
 13 23  1  0
 14 24  1  0
 15 26  1  0
 16 18  1  0
 16 23  1  0
 17 18  1  0
 17 24  1  0
 18 25  1  0
 21 26  2  0
 22 26  2  0
 25 26  1  0
  3 27  1  0
  4 28  1  0
  5 29  1  0
  6 30  1  0
  7 31  1  0
  8 32  1  0
  9 33  1  0
 10 34  1  0
 15 35  1  0
 15 36  1  0
 15 37  1  0
 16 38  1  0
 16 39  1  0
 17 40  1  0
 17 41  1  0
 18 42  1  0
M  END
> <Name>
BR010578

$$$$
BR010579
  SciTegic05062102053D

 42 43  0  0  0  0            999 V2000
    0.4478   -4.9064    3.2093 C   0  0
   -0.8485   -5.4318   -4.6984 C   0  0
    0.3113   -2.5169    2.7050 C   0  0
    1.6953   -3.9489    1.3371 C   0  0
    0.2564   -3.2506   -4.6331 C   0  0
   -1.5470   -3.7221   -3.0961 C   0  0
    0.6763   -1.4194    1.9253 C   0  0
    2.0603   -2.8514    0.5574 C   0  0
    0.3891   -1.9745   -4.0860 C   0  0
   -1.4143   -2.4459   -2.5489 C   0  0
    0.8209   -3.7817    2.4109 C   0  0
   -0.7117   -4.1245   -4.1382 C   0  0
    1.5507   -1.5866    0.8515 C   0  0
   -0.4462   -1.5721   -3.0439 C   0  0
    4.2394    3.5771   -1.6425 C   0  0
    0.9523    0.5385   -0.0326 C   0  0
    0.9856    0.2573   -2.5348 C   0  0
    1.1440    1.2331   -1.3744 C   0  0
    0.1449   -5.8200    3.8578 N   0  0
   -0.9595   -6.4936   -5.1534 N   0  0
    1.7623    3.9807   -2.3854 O   0  0
    3.2034    2.3889   -3.7320 O   0  0
    1.9094   -0.5089    0.0865 O   0  0
   -0.3162   -0.3189   -2.5072 O   0  0
    2.4671    1.7733   -1.4064 O   0  0
    2.7923    2.9653   -2.4679 S   0  0
   -0.3710   -2.3709    3.5389 H   0  0
    2.1010   -4.9285    1.0952 H   0  0
    0.9147   -3.5499   -5.4453 H   0  0
   -2.3064   -4.3918   -2.6994 H   0  0
    0.2767   -0.4364    2.1593 H   0  0
    2.7422   -2.9883   -0.2775 H   0  0
    1.1446   -1.2977   -4.4758 H   0  0
   -2.0684   -2.1385   -1.7375 H   0  0
    5.0180    2.8151   -1.7023 H   0  0
    4.5604    4.4919   -2.1431 H   0  0
    3.9822    3.7803   -0.6020 H   0  0
   -0.0450    0.0930    0.0448 H   0  0
    1.1073    1.2349    0.7974 H   0  0
    1.7168   -0.5552   -2.4807 H   0  0
    1.0950    0.7675   -3.4970 H   0  0
    0.4552    2.0798   -1.4720 H   0  0
  1 11  1  0
  1 19  3  0
  2 12  1  0
  2 20  3  0
  3  7  2  0
  3 11  1  0
  4  8  1  0
  4 11  2  0
  5  9  1  0
  5 12  2  0
  6 10  2  0
  6 12  1  0
  7 13  1  0
  8 13  2  0
  9 14  2  0
 10 14  1  0
 13 23  1  0
 14 24  1  0
 15 26  1  0
 16 18  1  0
 16 23  1  0
 17 18  1  0
 17 24  1  0
 18 25  1  0
 21 26  2  0
 22 26  2  0
 25 26  1  0
  3 27  1  0
  4 28  1  0
  5 29  1  0
  6 30  1  0
  7 31  1  0
  8 32  1  0
  9 33  1  0
 10 34  1  0
 15 35  1  0
 15 36  1  0
 15 37  1  0
 16 38  1  0
 16 39  1  0
 17 40  1  0
 17 41  1  0
 18 42  1  0
M  END
> <Name>
BR010579

$$$$
BR010580
  SciTegic05062102053D

 44 45  0  0  1  0            999 V2000
    2.7659   -0.3227    4.4948 C   0  0
    7.3424    1.2558   -0.2435 C   0  0
    1.8331   -0.9909    3.7016 C   0  0
    6.6255    2.2497   -0.9097 C   0  0
    3.2213    0.9416    4.1208 C   0  0
    6.7548    0.0135   -0.0043 C   0  0
    1.3559   -0.3948    2.5343 C   0  0
    5.3210    2.0015   -1.3366 C   0  0
    2.7440    1.5377    2.9535 C   0  0
    5.4503   -0.2347   -0.4312 C   0  0
    1.8113    0.8695    2.1603 C   0  0
    4.7334    0.7592   -1.0973 C   0  0
   -0.4389   -0.5526   -4.4491 C   0  0
    0.9523    0.5385   -0.0326 C   0  0
    2.5900    1.6733   -1.5727 C   0  0
    1.1440    1.2331   -1.3744 C   0  0  1  0  0  0
    3.2191    2.8270    2.5875 N   0  3
    4.8670   -1.5069   -0.1790 N   0  3
    4.2374    2.9139    1.8612 O   0  5
    4.2338   -1.6822    0.8889 O   0  5
    2.6054    3.8389    3.0015 O   0  0
    5.0027   -2.4155   -1.0322 O   0  0
    1.6464    1.0143   -4.6658 O   0  0
   -0.5165    1.9693   -3.7527 O   0  0
    1.3292    1.4330    1.0089 O   0  0
    3.4508    0.5402   -1.5245 O   0  0
    0.8022    0.3036   -2.4052 O   0  0
    0.4348    0.8843   -3.8821 S   0  0
    3.1377   -0.7870    5.4036 H   0  0
    8.3581    1.4492    0.0892 H   0  0
    1.4783   -1.9752    3.9928 H   0  0
    7.0831    3.2170   -1.0961 H   0  0
    3.9484    1.4507    4.7489 H   0  0
    7.3257   -0.7519    0.5160 H   0  0
    0.6289   -0.9210    1.9209 H   0  0
    4.7682    2.7804   -1.8553 H   0  0
   -1.3525   -0.6543   -3.8612 H   0  0
   -0.6768   -0.4165   -5.5051 H   0  0
    0.2038   -1.4233   -4.3107 H   0  0
    1.5825   -0.3536    0.0460 H   0  0
   -0.0952    0.2611    0.1216 H   0  0
    2.9082    2.3738   -0.7943 H   0  0
    2.7281    2.1452   -2.5506 H   0  0
    0.4552    2.0798   -1.4720 H   0  0
  1  3  2  0
  1  5  1  0
  2  4  1  0
  2  6  2  0
  3  7  1  0
  4  8  2  0
  5  9  2  0
  6 10  1  0
  7 11  2  0
  8 12  1  0
  9 11  1  0
  9 17  1  0
 10 12  2  0
 10 18  1  0
 11 25  1  0
 12 26  1  0
 13 28  1  0
 14 16  1  0
 14 25  1  0
 15 16  1  0
 15 26  1  0
 16 27  1  0
 17 19  1  0
 17 21  2  0
 18 20  1  0
 18 22  2  0
 23 28  2  0
 24 28  2  0
 27 28  1  0
  1 29  1  0
  2 30  1  0
  3 31  1  0
  4 32  1  0
  5 33  1  0
  6 34  1  0
  7 35  1  0
  8 36  1  0
 13 37  1  0
 13 38  1  0
 13 39  1  0
 14 40  1  0
 14 41  1  0
 15 42  1  0
 15 43  1  0
 16 44  1  0
M  CHG  4  17   1  18   1  19  -1  20  -1
M  END
> <Name>
BR010580

$$$$
BR010581
  SciTegic05062102053D

 44 45  0  0  0  0            999 V2000
    0.3109   -2.5173    2.7045 C   0  0
    1.6945   -3.9492    1.3362 C   0  0
    0.2567   -3.2510   -4.6326 C   0  0
   -1.5463   -3.7225   -3.0951 C   0  0
    0.6763   -1.4196    1.9254 C   0  0
    2.0598   -2.8515    0.5569 C   0  0
    0.3891   -1.9746   -4.0860 C   0  0
   -1.4139   -2.4461   -2.5484 C   0  0
    0.8200   -3.7821    2.4100 C   0  0
   -0.7110   -4.1250   -4.1372 C   0  0
    1.5507   -1.5866    0.8515 C   0  0
   -0.4462   -1.5721   -3.0439 C   0  0
    4.2394    3.5771   -1.6425 C   0  0
    0.9523    0.5385   -0.0326 C   0  0
    0.9856    0.2573   -2.5348 C   0  0
    1.1440    1.2331   -1.3744 C   0  0
    0.4484   -4.8997    3.2031 N   0  3
   -0.8461   -5.4244   -4.6936 N   0  3
   -0.3393   -4.7279    4.1647 O   0  5
   -0.0849   -5.7668   -5.6305 O   0  5
    0.9177   -6.0286    2.9206 O   0  0
   -1.7228   -6.1948   -4.2329 O   0  0
    1.7623    3.9807   -2.3854 O   0  0
    3.2034    2.3889   -3.7320 O   0  0
    1.9094   -0.5089    0.0865 O   0  0
   -0.3162   -0.3189   -2.5072 O   0  0
    2.4671    1.7733   -1.4064 O   0  0
    2.7923    2.9653   -2.4679 S   0  0
   -0.3717   -2.3733    3.5384 H   0  0
    2.0991   -4.9292    1.0957 H   0  0
    0.9144   -3.5522   -5.4443 H   0  0
   -2.3051   -4.3934   -2.6997 H   0  0
    0.2762   -0.4368    2.1595 H   0  0
    2.7417   -2.9879   -0.2780 H   0  0
    1.1450   -1.2983   -4.4759 H   0  0
   -2.0678   -2.1381   -1.7370 H   0  0
    5.0180    2.8151   -1.7023 H   0  0
    4.5604    4.4919   -2.1431 H   0  0
    3.9822    3.7803   -0.6020 H   0  0
   -0.0450    0.0930    0.0448 H   0  0
    1.1073    1.2349    0.7974 H   0  0
    1.7168   -0.5552   -2.4807 H   0  0
    1.0950    0.7675   -3.4970 H   0  0
    0.4552    2.0798   -1.4720 H   0  0
  1  5  2  0
  1  9  1  0
  2  6  1  0
  2  9  2  0
  3  7  1  0
  3 10  2  0
  4  8  2  0
  4 10  1  0
  5 11  1  0
  6 11  2  0
  7 12  2  0
  8 12  1  0
  9 17  1  0
 10 18  1  0
 11 25  1  0
 12 26  1  0
 13 28  1  0
 14 16  1  0
 14 25  1  0
 15 16  1  0
 15 26  1  0
 16 27  1  0
 17 19  1  0
 17 21  2  0
 18 20  1  0
 18 22  2  0
 23 28  2  0
 24 28  2  0
 27 28  1  0
  1 29  1  0
  2 30  1  0
  3 31  1  0
  4 32  1  0
  5 33  1  0
  6 34  1  0
  7 35  1  0
  8 36  1  0
 13 37  1  0
 13 38  1  0
 13 39  1  0
 14 40  1  0
 14 41  1  0
 15 42  1  0
 15 43  1  0
 16 44  1  0
M  CHG  4  17   1  18   1  19  -1  20  -1
M  END
> <Name>
BR010581

$$$$
BR010582
  SciTegic05062102053D

 52 53  0  0  1  0            999 V2000
   -1.4562   -1.7856    3.6260 C   0  0
    6.8880    0.7305   -3.8585 C   0  0
   -0.9011   -0.5068    3.6714 C   0  0
    6.6634    1.6767   -2.8586 C   0  0
   -1.6655   -2.4118    2.3973 C   0  0
    5.9580   -0.2856   -4.0787 C   0  0
   -0.5555    0.1459    2.4882 C   0  0
    5.5090    1.6069   -2.0789 C   0  0
   -1.3199   -1.7591    1.2140 C   0  0
    4.8036   -0.3554   -3.2990 C   0  0
   -0.7649   -0.4802    1.2594 C   0  0
    4.5790    0.5908   -2.2991 C   0  0
   -1.5470   -2.4308   -0.0580 C   0  0
    3.8457   -1.4243   -3.5455 C   0  0
   -2.9393   -4.0050   -1.1841 C   0  0
    2.9466   -2.8560   -5.2267 C   0  0
   -0.4389   -0.5526   -4.4491 C   0  0
    0.9523    0.5385   -0.0326 C   0  0
    2.5900    1.6733   -1.5727 C   0  0
    1.1440    1.2331   -1.3744 C   0  0  1  0  0  0
   -0.8607   -2.2559   -1.0723 O   0  0
    3.1173   -1.9228   -2.6787 O   0  0
    1.6464    1.0143   -4.6658 O   0  0
   -0.5165    1.9693   -3.7527 O   0  0
   -0.4172    0.1761    0.1088 O   0  0
    3.4508    0.5402   -1.5245 O   0  0
   -2.6150   -3.2822    0.0084 O   0  0
    3.8505   -1.8088   -4.8578 O   0  0
    0.8022    0.3036   -2.4052 O   0  0
    0.4348    0.8843   -3.8821 S   0  0
   -1.7252   -2.2936    4.5478 H   0  0
    7.7872    0.7852   -4.4656 H   0  0
   -0.7389   -0.0196    4.6284 H   0  0
    7.3882    2.4672   -2.6873 H   0  0
   -2.0984   -3.4087    2.3741 H   0  0
    6.1433   -1.0173   -4.8611 H   0  0
   -0.1233    1.1420    2.5306 H   0  0
    5.3400    2.3473   -1.3017 H   0  0
   -3.8053   -4.6451   -0.9990 H   0  0
   -2.0825   -4.6119   -1.4877 H   0  0
   -3.1783   -3.2929   -1.9775 H   0  0
    3.0485   -3.0671   -6.2940 H   0  0
    1.9219   -2.5504   -5.0010 H   0  0
    3.1911   -3.7544   -4.6550 H   0  0
   -1.3525   -0.6543   -3.8612 H   0  0
   -0.6768   -0.4165   -5.5051 H   0  0
    0.2038   -1.4233   -4.3107 H   0  0
    1.2120    1.2024    0.7986 H   0  0
    1.5525   -0.3749    0.0276 H   0  0
    2.9082    2.3738   -0.7943 H   0  0
    2.7281    2.1452   -2.5506 H   0  0
    0.4552    2.0798   -1.4720 H   0  0
  1  3  2  0
  1  5  1  0
  2  4  1  0
  2  6  2  0
  3  7  1  0
  4  8  2  0
  5  9  2  0
  6 10  1  0
  7 11  2  0
  8 12  1  0
  9 11  1  0
  9 13  1  0
 10 12  2  0
 10 14  1  0
 11 25  1  0
 12 26  1  0
 13 21  2  0
 13 27  1  0
 14 22  2  0
 14 28  1  0
 15 27  1  0
 16 28  1  0
 17 30  1  0
 18 20  1  0
 18 25  1  0
 19 20  1  0
 19 26  1  0
 20 29  1  0
 23 30  2  0
 24 30  2  0
 29 30  1  0
  1 31  1  0
  2 32  1  0
  3 33  1  0
  4 34  1  0
  5 35  1  0
  6 36  1  0
  7 37  1  0
  8 38  1  0
 15 39  1  0
 15 40  1  0
 15 41  1  0
 16 42  1  0
 16 43  1  0
 16 44  1  0
 17 45  1  0
 17 46  1  0
 17 47  1  0
 18 48  1  0
 18 49  1  0
 19 50  1  0
 19 51  1  0
 20 52  1  0
M  END
> <Name>
BR010582

$$$$
BR010583
  SciTegic05062102053D

 52 53  0  0  1  0            999 V2000
    0.3112   -2.5179    2.7045 C   0  0
    0.2562   -3.2514   -4.6324 C   0  0
    0.8203   -3.7825    2.4095 C   0  0
   -0.7114   -4.1252   -4.1367 C   0  0
    0.6763   -1.4199    1.9254 C   0  0
    0.3889   -1.9749   -4.0860 C   0  0
    2.0599   -2.8513    0.5566 C   0  0
   -1.4139   -2.4458   -2.5481 C   0  0
    1.6947   -3.9493    1.3356 C   0  0
   -1.5465   -3.7224   -3.0946 C   0  0
    1.5507   -1.5866    0.8515 C   0  0
   -0.4462   -1.5721   -3.0439 C   0  0
    2.2257   -5.2678    1.0275 C   0  0
   -2.5556   -4.6332   -2.5771 C   0  0
    3.0058   -6.6682   -0.7394 C   0  0
   -3.7823   -5.2446   -0.6244 C   0  0
    4.2394    3.5771   -1.6425 C   0  0
    0.9523    0.5385   -0.0326 C   0  0
    0.9856    0.2573   -2.5348 C   0  0
    1.1440    1.2331   -1.3744 C   0  0  2  0  0  0
    2.4243   -6.1562    1.8667 O   0  0
   -3.1207   -5.5065   -3.2485 O   0  0
    1.7623    3.9807   -2.3854 O   0  0
    3.2034    2.3889   -3.7320 O   0  0
    1.9094   -0.5089    0.0865 O   0  0
   -0.3162   -0.3189   -2.5072 O   0  0
    2.4793   -5.4081   -0.3096 O   0  0
   -2.8046   -4.4072   -1.2509 O   0  0
    2.4671    1.7733   -1.4064 O   0  0
    2.7923    2.9653   -2.4679 S   0  0
   -0.3696   -2.3882    3.5406 H   0  0
    0.9064   -3.5652   -5.4438 H   0  0
    0.5285   -4.6314    3.0223 H   0  0
   -0.8056   -5.1179   -4.5689 H   0  0
    0.2763   -0.4373    2.1602 H   0  0
    1.1446   -1.2988   -4.4765 H   0  0
    2.7409   -2.9759   -0.2823 H   0  0
   -2.0621   -2.1270   -1.7350 H   0  0
    3.1622   -6.6488   -1.8207 H   0  0
    2.3062   -7.4654   -0.4759 H   0  0
    3.9608   -6.8439   -0.2385 H   0  0
   -3.8855   -4.9622    0.4262 H   0  0
   -3.4724   -6.2897   -0.7032 H   0  0
   -4.7412   -5.1117   -1.1309 H   0  0
    5.0180    2.8151   -1.7023 H   0  0
    4.5604    4.4919   -2.1431 H   0  0
    3.9822    3.7803   -0.6020 H   0  0
   -0.0450    0.0930    0.0448 H   0  0
    1.1073    1.2349    0.7974 H   0  0
    1.7168   -0.5552   -2.4807 H   0  0
    1.0950    0.7675   -3.4970 H   0  0
    0.4552    2.0798   -1.4720 H   0  0
  1  3  1  0
  1  5  2  0
  2  4  2  0
  2  6  1  0
  3  9  2  0
  4 10  1  0
  5 11  1  0
  6 12  2  0
  7  9  1  0
  7 11  2  0
  8 10  2  0
  8 12  1  0
  9 13  1  0
 10 14  1  0
 11 25  1  0
 12 26  1  0
 13 21  2  0
 13 27  1  0
 14 22  2  0
 14 28  1  0
 15 27  1  0
 16 28  1  0
 17 30  1  0
 18 20  1  0
 18 25  1  0
 19 20  1  0
 19 26  1  0
 20 29  1  0
 23 30  2  0
 24 30  2  0
 29 30  1  0
  1 31  1  0
  2 32  1  0
  3 33  1  0
  4 34  1  0
  5 35  1  0
  6 36  1  0
  7 37  1  0
  8 38  1  0
 15 39  1  0
 15 40  1  0
 15 41  1  0
 16 42  1  0
 16 43  1  0
 16 44  1  0
 17 45  1  0
 17 46  1  0
 17 47  1  0
 18 48  1  0
 18 49  1  0
 19 50  1  0
 19 51  1  0
 20 52  1  0
M  END
> <Name>
BR010583

$$$$
BR010584
  SciTegic05062102053D

 52 53  0  0  0  0            999 V2000
    0.3114   -2.5178    2.7046 C   0  0
    1.6953   -3.9492    1.3360 C   0  0
    0.2561   -3.2513   -4.6326 C   0  0
   -1.5470   -3.7221   -3.0950 C   0  0
    0.6763   -1.4199    1.9255 C   0  0
    2.0602   -2.8513    0.5568 C   0  0
    0.3889   -1.9749   -4.0860 C   0  0
   -1.4142   -2.4457   -2.5484 C   0  0
    0.8209   -3.7824    2.4099 C   0  0
   -0.7120   -4.1249   -4.1371 C   0  0
    1.5507   -1.5866    0.8515 C   0  0
   -0.4462   -1.5721   -3.0439 C   0  0
    0.4404   -4.9273    3.2220 C   0  0
   -0.8505   -5.4558   -4.7067 C   0  0
    0.0846   -7.2861    3.1839 C   0  0
   -1.4769   -7.7061   -4.2208 C   0  0
    4.2394    3.5771   -1.6425 C   0  0
    0.9523    0.5385   -0.0326 C   0  0
    0.9856    0.2573   -2.5348 C   0  0
    1.1440    1.2331   -1.3744 C   0  0
    0.1470   -4.8671    4.4234 O   0  0
   -0.5934   -5.7443   -5.8830 O   0  0
    1.7623    3.9807   -2.3854 O   0  0
    3.2034    2.3889   -3.7320 O   0  0
    1.9094   -0.5089    0.0865 O   0  0
   -0.3162   -0.3189   -2.5072 O   0  0
    0.4447   -6.0851    2.4930 O   0  0
   -1.3006   -6.3557   -3.7794 O   0  0
    2.4671    1.7733   -1.4064 O   0  0
    2.7923    2.9653   -2.4679 S   0  0
   -0.3710   -2.3758    3.5387 H   0  0
    2.0977   -4.9305    1.0980 H   0  0
    0.9127   -3.5543   -5.4441 H   0  0
   -2.3043   -4.3955   -2.7016 H   0  0
    0.2762   -0.4374    2.1601 H   0  0
    2.7420   -2.9872   -0.2783 H   0  0
    1.1447   -1.2989   -4.4764 H   0  0
   -2.0678   -2.1374   -1.7369 H   0  0
    0.1277   -8.1317    2.4931 H   0  0
   -0.9249   -7.1850    3.5904 H   0  0
    0.7899   -7.4507    4.0020 H   0  0
   -1.8375   -8.3176   -3.3900 H   0  0
   -0.5251   -8.0973   -4.5889 H   0  0
   -2.2124   -7.7229   -5.0286 H   0  0
    5.0180    2.8151   -1.7023 H   0  0
    4.5604    4.4919   -2.1431 H   0  0
    3.9822    3.7803   -0.6020 H   0  0
   -0.0450    0.0930    0.0448 H   0  0
    1.1073    1.2349    0.7974 H   0  0
    1.7168   -0.5552   -2.4807 H   0  0
    1.0950    0.7675   -3.4970 H   0  0
    0.4552    2.0798   -1.4720 H   0  0
  1  5  2  0
  1  9  1  0
  2  6  1  0
  2  9  2  0
  3  7  1  0
  3 10  2  0
  4  8  2  0
  4 10  1  0
  5 11  1  0
  6 11  2  0
  7 12  2  0
  8 12  1  0
  9 13  1  0
 10 14  1  0
 11 25  1  0
 12 26  1  0
 13 21  2  0
 13 27  1  0
 14 22  2  0
 14 28  1  0
 15 27  1  0
 16 28  1  0
 17 30  1  0
 18 20  1  0
 18 25  1  0
 19 20  1  0
 19 26  1  0
 20 29  1  0
 23 30  2  0
 24 30  2  0
 29 30  1  0
  1 31  1  0
  2 32  1  0
  3 33  1  0
  4 34  1  0
  5 35  1  0
  6 36  1  0
  7 37  1  0
  8 38  1  0
 15 39  1  0
 15 40  1  0
 15 41  1  0
 16 42  1  0
 16 43  1  0
 16 44  1  0
 17 45  1  0
 17 46  1  0
 17 47  1  0
 18 48  1  0
 18 49  1  0
 19 50  1  0
 19 51  1  0
 20 52  1  0
M  END
> <Name>
BR010584

$$$$
BR010585
  SciTegic05062102053D

 48 49  0  0  1  0            999 V2000
    2.7708   -0.2936    4.5074 C   0  0
    7.3441    1.2313   -0.2349 C   0  0
    1.4834   -0.5884    4.0587 C   0  0
    6.6373    2.2334   -0.8995 C   0  0
    3.5784    0.5828    3.7826 C   0  0
    6.7457   -0.0069   -0.0016 C   0  0
    1.0037   -0.0069    2.8852 C   0  0
    5.3319    1.9974   -1.3307 C   0  0
    3.0987    1.1643    2.6090 C   0  0
    5.4403   -0.2429   -0.4328 C   0  0
    1.8113    0.8695    2.1603 C   0  0
    4.7334    0.7592   -1.0973 C   0  0
    3.8202    3.4013    2.2468 C   0  0
    5.6573   -2.4251    0.4875 C   0  0
   -0.4389   -0.5526   -4.4491 C   0  0
    0.9523    0.5385   -0.0326 C   0  0
    2.5900    1.6733   -1.5727 C   0  0
    1.1440    1.2331   -1.3744 C   0  0  1  0  0  0
    1.6464    1.0143   -4.6658 O   0  0
   -0.5165    1.9693   -3.7527 O   0  0
    3.8976    2.0177    1.9095 O   0  0
    4.8666   -1.4559   -0.1978 O   0  0
    1.3292    1.4330    1.0089 O   0  0
    3.4508    0.5402   -1.5245 O   0  0
    0.8022    0.3036   -2.4052 O   0  0
    0.4348    0.8843   -3.8821 S   0  0
    3.1444   -0.7463    5.4216 H   0  0
    8.3609    1.4150    0.1007 H   0  0
    0.8548   -1.2707    4.6229 H   0  0
    7.1031    3.1973   -1.0811 H   0  0
    4.5804    0.8085    4.1377 H   0  0
    7.3019   -0.7835    0.5165 H   0  0
    0.0005   -0.2421    2.5404 H   0  0
    4.7863    2.7829   -1.8463 H   0  0
    4.5070    3.9700    1.6152 H   0  0
    4.0806    3.5357    3.2997 H   0  0
    2.7991    3.7517    2.0784 H   0  0
    5.0815   -3.3457    0.6099 H   0  0
    5.9497   -2.0329    1.4648 H   0  0
    6.5532   -2.6340   -0.1019 H   0  0
   -1.3525   -0.6543   -3.8612 H   0  0
   -0.6768   -0.4165   -5.5051 H   0  0
    0.2038   -1.4233   -4.3107 H   0  0
    1.5825   -0.3536    0.0460 H   0  0
   -0.0952    0.2611    0.1216 H   0  0
    2.9082    2.3738   -0.7943 H   0  0
    2.7281    2.1452   -2.5506 H   0  0
    0.4552    2.0798   -1.4720 H   0  0
  1  3  2  0
  1  5  1  0
  2  4  1  0
  2  6  2  0
  3  7  1  0
  4  8  2  0
  5  9  2  0
  6 10  1  0
  7 11  2  0
  8 12  1  0
  9 11  1  0
  9 21  1  0
 10 12  2  0
 10 22  1  0
 11 23  1  0
 12 24  1  0
 13 21  1  0
 14 22  1  0
 15 26  1  0
 16 18  1  0
 16 23  1  0
 17 18  1  0
 17 24  1  0
 18 25  1  0
 19 26  2  0
 20 26  2  0
 25 26  1  0
  1 27  1  0
  2 28  1  0
  3 29  1  0
  4 30  1  0
  5 31  1  0
  6 32  1  0
  7 33  1  0
  8 34  1  0
 13 35  1  0
 13 36  1  0
 13 37  1  0
 14 38  1  0
 14 39  1  0
 14 40  1  0
 15 41  1  0
 15 42  1  0
 15 43  1  0
 16 44  1  0
 16 45  1  0
 17 46  1  0
 17 47  1  0
 18 48  1  0
M  END
> <Name>
BR010585

$$$$
BR010586
  SciTegic05062102053D

 48 49  0  0  1  0            999 V2000
   -0.1756   -2.3636    2.7137 C   0  0
    0.2585   -3.2514   -4.6314 C   0  0
   -0.1284   -3.6996    2.3157 C   0  0
   -0.7075   -4.1264   -4.1347 C   0  0
    0.3883   -1.3752    1.9070 C   0  0
    0.3892   -1.9743   -4.0860 C   0  0
    1.0468   -3.0589    0.3043 C   0  0
   -1.4123   -2.4471   -2.5472 C   0  0
    0.4828   -4.0473    1.1110 C   0  0
   -1.5429   -3.7243   -3.0926 C   0  0
    0.9995   -1.7228    0.7023 C   0  0
   -0.4462   -1.5721   -3.0439 C   0  0
    1.1703   -5.6366   -0.5191 C   0  0
   -3.3072   -4.1021   -1.5433 C   0  0
    4.2394    3.5771   -1.6425 C   0  0
    0.9523    0.5385   -0.0326 C   0  0
    0.9856    0.2573   -2.5348 C   0  0
    1.1440    1.2331   -1.3744 C   0  0  2  0  0  0
    1.7623    3.9807   -2.3854 O   0  0
    3.2034    2.3889   -3.7320 O   0  0
    0.5305   -5.3512    0.7239 O   0  0
   -2.4868   -4.5776   -2.6094 O   0  0
    1.5511   -0.7519   -0.0905 O   0  0
   -0.3162   -0.3189   -2.5072 O   0  0
    2.4671    1.7733   -1.4064 O   0  0
    2.7923    2.9653   -2.4679 S   0  0
   -0.6516   -2.0929    3.6516 H   0  0
    0.9091   -3.5646   -5.4428 H   0  0
   -0.5690   -4.4653    2.9483 H   0  0
   -0.8049   -5.1199   -4.5637 H   0  0
    0.3475   -0.3359    2.2214 H   0  0
    1.1443   -1.2973   -4.4760 H   0  0
    1.5234   -3.3299   -0.6343 H   0  0
   -2.0636   -2.1336   -1.7353 H   0  0
    1.1385   -6.7125   -0.7076 H   0  0
    2.2071   -5.2925   -0.4837 H   0  0
    0.6419   -5.1130   -1.3193 H   0  0
   -4.0166   -4.8811   -1.2532 H   0  0
   -3.8446   -3.2072   -1.8671 H   0  0
   -2.6722   -3.8545   -0.6894 H   0  0
    5.0180    2.8151   -1.7023 H   0  0
    4.5604    4.4919   -2.1431 H   0  0
    3.9822    3.7803   -0.6020 H   0  0
   -0.1100    0.4061    0.1976 H   0  0
    1.4343    1.0997    0.7741 H   0  0
    1.7168   -0.5552   -2.4807 H   0  0
    1.0950    0.7675   -3.4970 H   0  0
    0.4552    2.0798   -1.4720 H   0  0
  1  3  1  0
  1  5  2  0
  2  4  2  0
  2  6  1  0
  3  9  2  0
  4 10  1  0
  5 11  1  0
  6 12  2  0
  7  9  1  0
  7 11  2  0
  8 10  2  0
  8 12  1  0
  9 21  1  0
 10 22  1  0
 11 23  1  0
 12 24  1  0
 13 21  1  0
 14 22  1  0
 15 26  1  0
 16 18  1  0
 16 23  1  0
 17 18  1  0
 17 24  1  0
 18 25  1  0
 19 26  2  0
 20 26  2  0
 25 26  1  0
  1 27  1  0
  2 28  1  0
  3 29  1  0
  4 30  1  0
  5 31  1  0
  6 32  1  0
  7 33  1  0
  8 34  1  0
 13 35  1  0
 13 36  1  0
 13 37  1  0
 14 38  1  0
 14 39  1  0
 14 40  1  0
 15 41  1  0
 15 42  1  0
 15 43  1  0
 16 44  1  0
 16 45  1  0
 17 46  1  0
 17 47  1  0
 18 48  1  0
M  END
> <Name>
BR010586

$$$$
BR010587
  SciTegic05062102053D

 48 49  0  0  0  0            999 V2000
    1.6945   -3.9492    1.3359 C   0  0
    0.3107   -2.5175    2.7043 C   0  0
   -1.5463   -3.7224   -3.0949 C   0  0
    0.2568   -3.2513   -4.6323 C   0  0
    2.0599   -2.8514    0.5569 C   0  0
    0.6761   -1.4197    1.9253 C   0  0
   -1.4139   -2.4459   -2.5484 C   0  0
    0.3892   -1.9748   -4.0859 C   0  0
    0.8199   -3.7823    2.4096 C   0  0
   -0.7109   -4.1251   -4.1368 C   0  0
    1.5507   -1.5866    0.8515 C   0  0
   -0.4462   -1.5721   -3.0439 C   0  0
    1.0181   -6.1179    2.8114 C   0  0
   -1.8475   -6.2141   -4.1142 C   0  0
    4.2394    3.5771   -1.6425 C   0  0
    0.9523    0.5385   -0.0326 C   0  0
    0.9856    0.2573   -2.5348 C   0  0
    1.1440    1.2331   -1.3744 C   0  0
    1.7623    3.9807   -2.3854 O   0  0
    3.2034    2.3889   -3.7320 O   0  0
    0.4619   -4.8535    3.1690 O   0  0
   -0.8388   -5.3712   -4.6691 O   0  0
    1.9094   -0.5089    0.0865 O   0  0
   -0.3162   -0.3189   -2.5072 O   0  0
    2.4671    1.7733   -1.4064 O   0  0
    2.7923    2.9653   -2.4679 S   0  0
    2.0925   -4.9323    1.1001 H   0  0
   -0.3717   -2.3819    3.5390 H   0  0
   -2.3004   -4.3996   -2.7031 H   0  0
    0.9109   -3.5600   -5.4433 H   0  0
    2.7426   -2.9871   -0.2774 H   0  0
    0.2761   -0.4370    2.1594 H   0  0
   -2.0683   -2.1372   -1.7378 H   0  0
    1.1450   -1.2984   -4.4757 H   0  0
    0.6509   -6.8853    3.4972 H   0  0
    2.1086   -6.0636    2.8584 H   0  0
    0.7111   -6.3659    1.7926 H   0  0
   -1.8421   -7.1777   -4.6294 H   0  0
   -2.8240   -5.7358   -4.2237 H   0  0
   -1.6369   -6.3694   -3.0534 H   0  0
    5.0180    2.8151   -1.7023 H   0  0
    4.5604    4.4919   -2.1431 H   0  0
    3.9822    3.7803   -0.6020 H   0  0
   -0.0450    0.0930    0.0448 H   0  0
    1.1073    1.2349    0.7974 H   0  0
    1.7168   -0.5552   -2.4807 H   0  0
    1.0950    0.7675   -3.4970 H   0  0
    0.4552    2.0798   -1.4720 H   0  0
  1  5  2  0
  1  9  1  0
  2  6  1  0
  2  9  2  0
  3  7  1  0
  3 10  2  0
  4  8  2  0
  4 10  1  0
  5 11  1  0
  6 11  2  0
  7 12  2  0
  8 12  1  0
  9 21  1  0
 10 22  1  0
 11 23  1  0
 12 24  1  0
 13 21  1  0
 14 22  1  0
 15 26  1  0
 16 18  1  0
 16 23  1  0
 17 18  1  0
 17 24  1  0
 18 25  1  0
 19 26  2  0
 20 26  2  0
 25 26  1  0
  1 27  1  0
  2 28  1  0
  3 29  1  0
  4 30  1  0
  5 31  1  0
  6 32  1  0
  7 33  1  0
  8 34  1  0
 13 35  1  0
 13 36  1  0
 13 37  1  0
 14 38  1  0
 14 39  1  0
 14 40  1  0
 15 41  1  0
 15 42  1  0
 15 43  1  0
 16 44  1  0
 16 45  1  0
 17 46  1  0
 17 47  1  0
 18 48  1  0
M  END
> <Name>
BR010587

$$$$
BR010588
  SciTegic05062102053D

 46 47  0  0  1  0            999 V2000
    2.7739   -0.3083    4.4988 C   0  0
    7.3440    1.2395   -0.2391 C   0  0
    1.8421   -0.9834    3.7104 C   0  0
    6.6334    2.2389   -0.9037 C   0  0
    3.2244    0.9557    4.1179 C   0  0
    6.7494   -0.0002   -0.0037 C   0  0
    1.3608   -0.3945    2.5412 C   0  0
    5.3281    1.9988   -1.3327 C   0  0
    2.7431    1.5446    2.9487 C   0  0
    5.4441   -0.2403   -0.4328 C   0  0
    1.8113    0.8695    2.1603 C   0  0
    4.7334    0.7592   -1.0973 C   0  0
    3.2367    2.8978    2.5564 C   0  0
    4.8235   -1.5728   -0.1719 C   0  0
   -0.4389   -0.5526   -4.4491 C   0  0
    0.9523    0.5385   -0.0326 C   0  0
    2.5900    1.6733   -1.5727 C   0  0
    1.1440    1.2331   -1.3744 C   0  0  1  0  0  0
    1.6464    1.0143   -4.6658 O   0  0
   -0.5165    1.9693   -3.7527 O   0  0
    1.3292    1.4330    1.0089 O   0  0
    3.4508    0.5402   -1.5245 O   0  0
    0.8022    0.3036   -2.4052 O   0  0
    0.4348    0.8843   -3.8821 S   0  0
    3.1495   -0.7667    5.4092 H   0  0
    8.3604    1.4261    0.0958 H   0  0
    1.4923   -1.9678    4.0069 H   0  0
    7.0965    3.2042   -1.0859 H   0  0
    3.9517    1.4728    4.7383 H   0  0
    7.3109   -0.7718    0.5163 H   0  0
    0.6350   -0.9253    1.9311 H   0  0
    4.7795    2.7814   -1.8499 H   0  0
    4.1274    2.8091    1.9232 H   0  0
    2.4699    3.4554    2.0042 H   0  0
    3.4937    3.4977    3.4385 H   0  0
    4.3063   -1.5689    0.7948 H   0  0
    4.0997   -1.8336   -0.9541 H   0  0
    5.5801   -2.3675   -0.1599 H   0  0
   -1.3525   -0.6543   -3.8612 H   0  0
   -0.6768   -0.4165   -5.5051 H   0  0
    0.2038   -1.4233   -4.3107 H   0  0
    1.5825   -0.3536    0.0460 H   0  0
   -0.0952    0.2611    0.1216 H   0  0
    2.9082    2.3738   -0.7943 H   0  0
    2.7281    2.1452   -2.5506 H   0  0
    0.4552    2.0798   -1.4720 H   0  0
  1  3  2  0
  1  5  1  0
  2  4  1  0
  2  6  2  0
  3  7  1  0
  4  8  2  0
  5  9  2  0
  6 10  1  0
  7 11  2  0
  8 12  1  0
  9 11  1  0
  9 13  1  0
 10 12  2  0
 10 14  1  0
 11 21  1  0
 12 22  1  0
 15 24  1  0
 16 18  1  0
 16 21  1  0
 17 18  1  0
 17 22  1  0
 18 23  1  0
 19 24  2  0
 20 24  2  0
 23 24  1  0
  1 25  1  0
  2 26  1  0
  3 27  1  0
  4 28  1  0
  5 29  1  0
  6 30  1  0
  7 31  1  0
  8 32  1  0
 13 33  1  0
 13 34  1  0
 13 35  1  0
 14 36  1  0
 14 37  1  0
 14 38  1  0
 15 39  1  0
 15 40  1  0
 15 41  1  0
 16 42  1  0
 16 43  1  0
 17 44  1  0
 17 45  1  0
 18 46  1  0
M  END
> <Name>
BR010588

$$$$
BR010589
  SciTegic05062102053D

 46 47  0  0  1  0            999 V2000
    0.3105   -2.5174    2.7043 C   0  0
    0.2571   -3.2512   -4.6323 C   0  0
    0.8190   -3.7823    2.4093 C   0  0
   -0.7101   -4.1254   -4.1364 C   0  0
    0.6763   -1.4195    1.9254 C   0  0
    0.3891   -1.9745   -4.0860 C   0  0
    2.0593   -2.8516    0.5566 C   0  0
   -1.4134   -2.4463   -2.5480 C   0  0
    1.6934   -3.9494    1.3355 C   0  0
   -1.5454   -3.7230   -3.0943 C   0  0
    1.5507   -1.5866    0.8515 C   0  0
   -0.4462   -1.5721   -3.0439 C   0  0
    2.2374   -5.3018    1.0206 C   0  0
   -2.5798   -4.6576   -2.5646 C   0  0
    4.2394    3.5771   -1.6425 C   0  0
    0.9523    0.5385   -0.0326 C   0  0
    0.9856    0.2573   -2.5348 C   0  0
    1.1440    1.2331   -1.3744 C   0  0  2  0  0  0
    1.7623    3.9807   -2.3854 O   0  0
    3.2034    2.3889   -3.7320 O   0  0
    1.9094   -0.5089    0.0865 O   0  0
   -0.3162   -0.3189   -2.5072 O   0  0
    2.4671    1.7733   -1.4064 O   0  0
    2.7923    2.9653   -2.4679 S   0  0
   -0.3707   -2.3874    3.5400 H   0  0
    0.9076   -3.5648   -5.4433 H   0  0
    0.5286   -4.6316    3.0221 H   0  0
   -0.8058   -5.1180   -4.5687 H   0  0
    0.2768   -0.4369    2.1603 H   0  0
    1.1443   -1.2983   -4.4767 H   0  0
    2.7411   -2.9788   -0.2811 H   0  0
   -2.0635   -2.1297   -1.7357 H   0  0
    1.5780   -5.8244    0.3169 H   0  0
    3.2384   -5.2348    0.5750 H   0  0
    2.3337   -5.9135    1.9271 H   0  0
   -2.1672   -5.2597   -1.7458 H   0  0
   -3.4548   -4.1119   -2.1884 H   0  0
   -2.9417   -5.3367   -3.3477 H   0  0
    5.0180    2.8151   -1.7023 H   0  0
    4.5604    4.4919   -2.1431 H   0  0
    3.9822    3.7803   -0.6020 H   0  0
   -0.0450    0.0930    0.0448 H   0  0
    1.1073    1.2349    0.7974 H   0  0
    1.7168   -0.5552   -2.4807 H   0  0
    1.0950    0.7675   -3.4970 H   0  0
    0.4552    2.0798   -1.4720 H   0  0
  1  3  1  0
  1  5  2  0
  2  4  2  0
  2  6  1  0
  3  9  2  0
  4 10  1  0
  5 11  1  0
  6 12  2  0
  7  9  1  0
  7 11  2  0
  8 10  2  0
  8 12  1  0
  9 13  1  0
 10 14  1  0
 11 21  1  0
 12 22  1  0
 15 24  1  0
 16 18  1  0
 16 21  1  0
 17 18  1  0
 17 22  1  0
 18 23  1  0
 19 24  2  0
 20 24  2  0
 23 24  1  0
  1 25  1  0
  2 26  1  0
  3 27  1  0
  4 28  1  0
  5 29  1  0
  6 30  1  0
  7 31  1  0
  8 32  1  0
 13 33  1  0
 13 34  1  0
 13 35  1  0
 14 36  1  0
 14 37  1  0
 14 38  1  0
 15 39  1  0
 15 40  1  0
 15 41  1  0
 16 42  1  0
 16 43  1  0
 17 44  1  0
 17 45  1  0
 18 46  1  0
M  END
> <Name>
BR010589

$$$$
BR010590
  SciTegic05062102053D

 46 47  0  0  0  0            999 V2000
    0.3098   -2.5172    2.7039 C   0  0
    1.6923   -3.9496    1.3349 C   0  0
    0.2577   -3.2512   -4.6319 C   0  0
   -1.5445   -3.7235   -3.0937 C   0  0
    0.6763   -1.4194    1.9253 C   0  0
    2.0588   -2.8517    0.5563 C   0  0
    0.3891   -1.9744   -4.0860 C   0  0
   -1.4130   -2.4466   -2.5477 C   0  0
    0.8179   -3.7823    2.4087 C   0  0
   -0.7091   -4.1258   -4.1358 C   0  0
    1.5507   -1.5866    0.8515 C   0  0
   -0.4462   -1.5721   -3.0439 C   0  0
    0.4258   -4.9562    3.2406 C   0  0
   -0.8493   -5.4911   -4.7189 C   0  0
    4.2394    3.5771   -1.6425 C   0  0
    0.9523    0.5385   -0.0326 C   0  0
    0.9856    0.2573   -2.5348 C   0  0
    1.1440    1.2331   -1.3744 C   0  0
    1.7623    3.9807   -2.3854 O   0  0
    3.2034    2.3889   -3.7320 O   0  0
    1.9094   -0.5089    0.0865 O   0  0
   -0.3162   -0.3189   -2.5072 O   0  0
    2.4671    1.7733   -1.4064 O   0  0
    2.7923    2.9653   -2.4679 S   0  0
   -0.3719   -2.3777    3.5385 H   0  0
    2.0933   -4.9316    1.0976 H   0  0
    0.9127   -3.5562   -5.4436 H   0  0
   -2.3007   -4.3982   -2.7008 H   0  0
    0.2769   -0.4363    2.1601 H   0  0
    2.7399   -2.9886   -0.2788 H   0  0
    1.1445   -1.2977   -4.4766 H   0  0
   -2.0664   -2.1394   -1.7360 H   0  0
   -0.4732   -5.4321    2.8301 H   0  0
    1.2286   -5.7039    3.2785 H   0  0
    0.2196   -4.6590    4.2772 H   0  0
   -0.2075   -6.2025   -4.1848 H   0  0
   -1.8866   -5.8456   -4.6589 H   0  0
   -0.5714   -5.5013   -5.7810 H   0  0
    5.0180    2.8151   -1.7023 H   0  0
    4.5604    4.4919   -2.1431 H   0  0
    3.9822    3.7803   -0.6020 H   0  0
   -0.0450    0.0930    0.0448 H   0  0
    1.1073    1.2349    0.7974 H   0  0
    1.7168   -0.5552   -2.4807 H   0  0
    1.0950    0.7675   -3.4970 H   0  0
    0.4552    2.0798   -1.4720 H   0  0
  1  5  2  0
  1  9  1  0
  2  6  1  0
  2  9  2  0
  3  7  1  0
  3 10  2  0
  4  8  2  0
  4 10  1  0
  5 11  1  0
  6 11  2  0
  7 12  2  0
  8 12  1  0
  9 13  1  0
 10 14  1  0
 11 21  1  0
 12 22  1  0
 15 24  1  0
 16 18  1  0
 16 21  1  0
 17 18  1  0
 17 22  1  0
 18 23  1  0
 19 24  2  0
 20 24  2  0
 23 24  1  0
  1 25  1  0
  2 26  1  0
  3 27  1  0
  4 28  1  0
  5 29  1  0
  6 30  1  0
  7 31  1  0
  8 32  1  0
 13 33  1  0
 13 34  1  0
 13 35  1  0
 14 36  1  0
 14 37  1  0
 14 38  1  0
 15 39  1  0
 15 40  1  0
 15 41  1  0
 16 42  1  0
 16 43  1  0
 17 44  1  0
 17 45  1  0
 18 46  1  0
M  END
> <Name>
BR010590

$$$$
BR010591
  SciTegic05062102053D

 40 41  0  0  1  0            999 V2000
   -0.8169   -1.7541    3.1000 C   0  0
    6.6616    1.6868   -2.8454 C   0  0
   -1.8557   -2.5583    2.6312 C   0  0
    6.8954    0.7438   -3.8462 C   0  0
   -0.3439   -0.6999    2.3186 C   0  0
    5.5034    1.6103   -2.0718 C   0  0
   -2.4214   -2.3083    1.3810 C   0  0
    5.9710   -0.2758   -4.0734 C   0  0
   -0.9096   -0.4499    1.0684 C   0  0
    4.5790    0.5908   -2.2991 C   0  0
   -1.9484   -1.2541    0.5996 C   0  0
    4.8128   -0.3523   -3.2999 C   0  0
   -0.4389   -0.5526   -4.4491 C   0  0
    0.9523    0.5385   -0.0326 C   0  0
    2.5900    1.6733   -1.5727 C   0  0
    1.1440    1.2331   -1.3744 C   0  0  1  0  0  0
    1.6464    1.0143   -4.6658 O   0  0
   -0.5165    1.9693   -3.7527 O   0  0
   -0.4253    0.5918    0.3229 O   0  0
    3.4508    0.5402   -1.5245 O   0  0
    0.8022    0.3036   -2.4052 O   0  0
    0.4348    0.8843   -3.8821 S   0  0
   -2.6666   -0.9679   -0.9425 Cl  0  0
    3.6869   -1.6237   -3.6027 Cl  0  0
   -0.3764   -1.9488    4.0735 H   0  0
    7.3814    2.4807   -2.6685 H   0  0
   -2.2238   -3.3791    3.2398 H   0  0
    7.7973    0.8035   -4.4484 H   0  0
    0.4657   -0.0775    2.6903 H   0  0
    5.3279    2.3485   -1.2939 H   0  0
   -3.2303   -2.9440    1.0298 H   0  0
    6.1677   -1.0030   -4.8571 H   0  0
   -1.3525   -0.6543   -3.8612 H   0  0
   -0.6768   -0.4165   -5.5051 H   0  0
    0.2038   -1.4233   -4.3107 H   0  0
    1.5230    1.0374    0.7577 H   0  0
    1.2475   -0.5141   -0.0880 H   0  0
    2.9082    2.3738   -0.7943 H   0  0
    2.7281    2.1452   -2.5506 H   0  0
    0.4552    2.0798   -1.4720 H   0  0
  1  3  2  0
  1  5  1  0
  2  4  1  0
  2  6  2  0
  3  7  1  0
  4  8  2  0
  5  9  2  0
  6 10  1  0
  7 11  2  0
  8 12  1  0
  9 11  1  0
  9 19  1  0
 10 12  2  0
 10 20  1  0
 11 23  1  0
 12 24  1  0
 13 22  1  0
 14 16  1  0
 14 19  1  0
 15 16  1  0
 15 20  1  0
 16 21  1  0
 17 22  2  0
 18 22  2  0
 21 22  1  0
  1 25  1  0
  2 26  1  0
  3 27  1  0
  4 28  1  0
  5 29  1  0
  6 30  1  0
  7 31  1  0
  8 32  1  0
 13 33  1  0
 13 34  1  0
 13 35  1  0
 14 36  1  0
 14 37  1  0
 15 38  1  0
 15 39  1  0
 16 40  1  0
M  END
> <Name>
BR010591

$$$$
BR010592
  SciTegic05062102053D

 40 41  0  0  1  0            999 V2000
    0.3121   -2.5172    2.7053 C   0  0
    0.2557   -3.2506   -4.6335 C   0  0
    0.6763   -1.4197    1.9254 C   0  0
    0.3890   -1.9747   -4.0860 C   0  0
    0.8223   -3.7817    2.4115 C   0  0
   -0.7130   -4.1240   -4.1389 C   0  0
    2.0610   -2.8512    0.5577 C   0  0
   -1.4148   -2.4455   -2.5493 C   0  0
    1.5507   -1.5866    0.8515 C   0  0
   -0.4462   -1.5721   -3.0439 C   0  0
    1.6967   -3.9487    1.3377 C   0  0
   -1.5482   -3.7215   -3.0968 C   0  0
    4.2394    3.5771   -1.6425 C   0  0
    0.9523    0.5385   -0.0326 C   0  0
    0.9856    0.2573   -2.5348 C   0  0
    1.1440    1.2331   -1.3744 C   0  0  2  0  0  0
    1.7623    3.9807   -2.3854 O   0  0
    3.2034    2.3889   -3.7320 O   0  0
    1.9094   -0.5089    0.0865 O   0  0
   -0.3162   -0.3189   -2.5072 O   0  0
    2.4671    1.7733   -1.4064 O   0  0
    2.7923    2.9653   -2.4679 S   0  0
    2.3256   -5.5091    0.9765 Cl  0  0
   -2.7429   -4.7997   -2.4878 Cl  0  0
   -0.3685   -2.3868    3.5417 H   0  0
    0.9058   -3.5636   -5.4452 H   0  0
    0.2756   -0.4370    2.1589 H   0  0
    1.1454   -1.2986   -4.4752 H   0  0
    0.5293   -4.6281    3.0276 H   0  0
   -0.8051   -5.1156   -4.5748 H   0  0
    2.7418   -2.9730   -0.2816 H   0  0
   -2.0618   -2.1241   -1.7363 H   0  0
    5.0180    2.8151   -1.7023 H   0  0
    4.5604    4.4919   -2.1431 H   0  0
    3.9822    3.7803   -0.6020 H   0  0
   -0.0450    0.0930    0.0448 H   0  0
    1.1073    1.2349    0.7974 H   0  0
    1.7168   -0.5552   -2.4807 H   0  0
    1.0950    0.7675   -3.4970 H   0  0
    0.4552    2.0798   -1.4720 H   0  0
  1  3  2  0
  1  5  1  0
  2  4  1  0
  2  6  2  0
  3  9  1  0
  4 10  2  0
  5 11  2  0
  6 12  1  0
  7  9  2  0
  7 11  1  0
  8 10  1  0
  8 12  2  0
  9 19  1  0
 10 20  1  0
 11 23  1  0
 12 24  1  0
 13 22  1  0
 14 16  1  0
 14 19  1  0
 15 16  1  0
 15 20  1  0
 16 21  1  0
 17 22  2  0
 18 22  2  0
 21 22  1  0
  1 25  1  0
  2 26  1  0
  3 27  1  0
  4 28  1  0
  5 29  1  0
  6 30  1  0
  7 31  1  0
  8 32  1  0
 13 33  1  0
 13 34  1  0
 13 35  1  0
 14 36  1  0
 14 37  1  0
 15 38  1  0
 15 39  1  0
 16 40  1  0
M  END
> <Name>
BR010592

$$$$
BR010593
  SciTegic05062102053D

 40 41  0  0  0  0            999 V2000
    0.6763   -1.4198    1.9255 C   0  0
    2.0595   -2.8514    0.5564 C   0  0
    0.3890   -1.9748   -4.0860 C   0  0
   -1.4136   -2.4461   -2.5479 C   0  0
    0.3106   -2.5178    2.7041 C   0  0
    1.6939   -3.9494    1.3351 C   0  0
    0.2568   -3.2515   -4.6321 C   0  0
   -1.5458   -3.7228   -3.0940 C   0  0
    1.5507   -1.5866    0.8515 C   0  0
   -0.4462   -1.5721   -3.0439 C   0  0
    0.8194   -3.7826    2.4090 C   0  0
   -0.7106   -4.1255   -4.1361 C   0  0
    4.2394    3.5771   -1.6425 C   0  0
    0.9523    0.5385   -0.0326 C   0  0
    0.9856    0.2573   -2.5348 C   0  0
    1.1440    1.2331   -1.3744 C   0  0
    1.7623    3.9807   -2.3854 O   0  0
    3.2034    2.3889   -3.7320 O   0  0
    1.9094   -0.5089    0.0865 O   0  0
   -0.3162   -0.3189   -2.5072 O   0  0
    2.4671    1.7733   -1.4064 O   0  0
    2.7923    2.9653   -2.4679 S   0  0
    0.3673   -5.1375    3.3687 Cl  0  0
   -0.8729   -5.7011   -4.8087 Cl  0  0
    0.2760   -0.4376    2.1605 H   0  0
    2.7407   -2.9877   -0.2790 H   0  0
    1.1448   -1.2992   -4.4767 H   0  0
   -2.0667   -2.1382   -1.7360 H   0  0
   -0.3726   -2.3734    3.5375 H   0  0
    2.0973   -4.9294    1.0931 H   0  0
    0.9151   -3.5525   -5.4433 H   0  0
   -2.3034   -4.3938   -2.6970 H   0  0
    5.0180    2.8151   -1.7023 H   0  0
    4.5604    4.4919   -2.1431 H   0  0
    3.9822    3.7803   -0.6020 H   0  0
   -0.0450    0.0930    0.0448 H   0  0
    1.1073    1.2349    0.7974 H   0  0
    1.7168   -0.5552   -2.4807 H   0  0
    1.0950    0.7675   -3.4970 H   0  0
    0.4552    2.0798   -1.4720 H   0  0
  1  5  2  0
  1  9  1  0
  2  6  1  0
  2  9  2  0
  3  7  2  0
  3 10  1  0
  4  8  1  0
  4 10  2  0
  5 11  1  0
  6 11  2  0
  7 12  1  0
  8 12  2  0
  9 19  1  0
 10 20  1  0
 11 23  1  0
 12 24  1  0
 13 22  1  0
 14 16  1  0
 14 19  1  0
 15 16  1  0
 15 20  1  0
 16 21  1  0
 17 22  2  0
 18 22  2  0
 21 22  1  0
  1 25  1  0
  2 26  1  0
  3 27  1  0
  4 28  1  0
  5 29  1  0
  6 30  1  0
  7 31  1  0
  8 32  1  0
 13 33  1  0
 13 34  1  0
 13 35  1  0
 14 36  1  0
 14 37  1  0
 15 38  1  0
 15 39  1  0
 16 40  1  0
M  END
> <Name>
BR010593

$$$$
BR010594
  SciTegic05062102053D

 40 41  0  0  0  0            999 V2000
    0.8181   -3.7834    2.4073 C   0  0
   -0.7097   -4.1264   -4.1342 C   0  0
    0.3101   -2.5186    2.7034 C   0  0
    1.6926   -3.9498    1.3334 C   0  0
    0.2570   -3.2523   -4.6312 C   0  0
   -1.5448   -3.7233   -3.0921 C   0  0
    0.6763   -1.4202    1.9255 C   0  0
    2.0588   -2.8515    0.5555 C   0  0
    0.3888   -1.9752   -4.0861 C   0  0
   -1.4130   -2.4462   -2.5469 C   0  0
    1.5507   -1.5866    0.8515 C   0  0
   -0.4462   -1.5721   -3.0439 C   0  0
    4.2394    3.5771   -1.6425 C   0  0
    0.9523    0.5385   -0.0326 C   0  0
    0.9856    0.2573   -2.5348 C   0  0
    1.1440    1.2331   -1.3744 C   0  0
    1.7623    3.9807   -2.3854 O   0  0
    3.2034    2.3889   -3.7320 O   0  0
    1.9094   -0.5089    0.0865 O   0  0
   -0.3162   -0.3189   -2.5072 O   0  0
    2.4671    1.7733   -1.4064 O   0  0
    2.7923    2.9653   -2.4679 S   0  0
    0.5336   -4.6387    3.0131 H   0  0
   -0.8130   -5.1207   -4.5589 H   0  0
   -0.3710   -2.3888    3.5395 H   0  0
    2.0880   -4.9351    1.1035 H   0  0
    0.9074   -3.5661   -5.4426 H   0  0
   -2.2974   -4.4045   -2.7057 H   0  0
    0.2758   -0.4378    2.1606 H   0  0
    2.7390   -2.9874   -0.2810 H   0  0
    1.1448   -1.2996   -4.4767 H   0  0
   -2.0650   -2.1383   -1.7341 H   0  0
    5.0180    2.8151   -1.7023 H   0  0
    4.5604    4.4919   -2.1431 H   0  0
    3.9822    3.7803   -0.6020 H   0  0
   -0.0450    0.0930    0.0448 H   0  0
    1.1073    1.2349    0.7974 H   0  0
    1.7168   -0.5552   -2.4807 H   0  0
    1.0950    0.7675   -3.4970 H   0  0
    0.4552    2.0798   -1.4720 H   0  0
  1  3  1  0
  1  4  2  0
  2  5  2  0
  2  6  1  0
  3  7  2  0
  4  8  1  0
  5  9  1  0
  6 10  2  0
  7 11  1  0
  8 11  2  0
  9 12  2  0
 10 12  1  0
 11 19  1  0
 12 20  1  0
 13 22  1  0
 14 16  1  0
 14 19  1  0
 15 16  1  0
 15 20  1  0
 16 21  1  0
 17 22  2  0
 18 22  2  0
 21 22  1  0
  1 23  1  0
  2 24  1  0
  3 25  1  0
  4 26  1  0
  5 27  1  0
  6 28  1  0
  7 29  1  0
  8 30  1  0
  9 31  1  0
 10 32  1  0
 13 33  1  0
 13 34  1  0
 13 35  1  0
 14 36  1  0
 14 37  1  0
 15 38  1  0
 15 39  1  0
 16 40  1  0
M  END
> <Name>
BR010594

$$$$
BR010595
  SciTegic05062102053D

 52 55  0  0  1  0            999 V2000
    3.9467  -11.1693    3.2477 C   0  0
    3.5879  -14.0584   -3.1267 C   0  0
    4.7192  -11.8580    2.3172 C   0  0
    2.6087  -13.3988   -2.3898 C   0  0
    3.7474   -9.7953    3.1099 C   0  0
    4.5424  -13.3260   -3.8331 C   0  0
    5.2953  -11.1755    1.2454 C   0  0
    2.5801  -12.0044   -2.3565 C   0  0
    4.1294   -7.7093    1.8830 C   0  0
    5.4816  -11.1686   -4.5160 C   0  0
    4.7055   -7.0268    0.8112 C   0  0
    5.4531   -9.7742   -4.4828 C   0  0
    5.6775   -9.0895    0.0186 C   0  0
    3.5193   -9.8470   -3.0394 C   0  0
    4.3196   -9.0922    2.0373 C   0  0
    4.5288  -11.9218   -3.8109 C   0  0
    5.1052   -9.7926    1.0911 C   0  0
    3.5330  -11.2511   -3.0616 C   0  0
    5.4781   -7.7156   -0.1192 C   0  0
    4.4738   -9.1146   -3.7459 C   0  0
    8.5720   -3.3207   -4.0074 C   0  0
    5.3444   -5.9007   -1.6503 C   0  0
    5.6978   -7.0782   -3.8481 C   0  0
    5.6448   -5.7324   -3.1339 C   0  0  2  0  0  0
    6.1792   -3.4996   -5.0531 O   0  0
    7.8830   -5.3032   -5.5714 O   0  0
    6.0392   -7.0483   -1.1644 O   0  0
    4.4474   -7.7458   -3.7141 O   0  0
    6.9195   -5.0973   -3.2566 O   0  0
    7.2826   -4.3517   -4.6586 S   0  0
    3.4992  -11.7012    4.0821 H   0  0
    3.6090  -15.1439   -3.1526 H   0  0
    4.8741  -12.9278    2.4246 H   0  0
    1.8658  -13.9693   -1.8397 H   0  0
    3.1404   -9.2765    3.8489 H   0  0
    5.2986  -13.8617   -4.4030 H   0  0
    5.8959  -11.7343    0.5306 H   0  0
    1.8051  -11.5101   -1.7744 H   0  0
    3.5298   -7.1505    2.5987 H   0  0
    6.2558  -11.6632   -5.0992 H   0  0
    4.5474   -5.9566    0.7091 H   0  0
    6.1986   -9.2088   -5.0353 H   0  0
    6.2842   -9.6133   -0.7180 H   0  0
    2.7603   -9.3158   -2.4678 H   0  0
    9.4053   -3.9586   -3.7089 H   0  0
    8.8836   -2.6248   -4.7878 H   0  0
    8.1777   -2.7787   -3.1465 H   0  0
    4.2744   -6.0572   -1.4773 H   0  0
    5.6841   -5.0316   -1.0783 H   0  0
    6.4743   -7.7261   -3.4294 H   0  0
    5.8846   -6.9494   -4.9189 H   0  0
    4.9131   -5.0642   -3.6020 H   0  0
  1  3  1  0
  1  5  2  0
  2  4  1  0
  2  6  2  0
  3  7  2  0
  4  8  2  0
  5 15  1  0
  6 16  1  0
  7 17  1  0
  8 18  1  0
  9 11  2  0
  9 15  1  0
 10 12  1  0
 10 16  2  0
 11 19  1  0
 12 20  2  0
 13 17  1  0
 13 19  2  0
 14 18  2  0
 14 20  1  0
 15 17  2  0
 16 18  1  0
 19 27  1  0
 20 28  1  0
 21 30  1  0
 22 24  1  0
 22 27  1  0
 23 24  1  0
 23 28  1  0
 24 29  1  0
 25 30  2  0
 26 30  2  0
 29 30  1  0
  1 31  1  0
  2 32  1  0
  3 33  1  0
  4 34  1  0
  5 35  1  0
  6 36  1  0
  7 37  1  0
  8 38  1  0
  9 39  1  0
 10 40  1  0
 11 41  1  0
 12 42  1  0
 13 43  1  0
 14 44  1  0
 21 45  1  0
 21 46  1  0
 21 47  1  0
 22 48  1  0
 22 49  1  0
 23 50  1  0
 23 51  1  0
 24 52  1  0
M  END
> <Name>
BR010595

$$$$
BR010596
  SciTegic05062102053D

 39 40  0  0  1  0            999 V2000
   -2.5057    4.2785   -2.2384 C   0  0
   -4.2652   -2.8498   -1.2391 C   0  0
   -3.8700    4.0295   -2.3875 C   0  0
   -4.9035   -2.3772   -2.3857 C   0  0
   -1.7289    3.4467   -1.4318 C   0  0
   -2.9722   -2.4238   -0.9349 C   0  0
   -3.6809    2.1169   -0.9234 C   0  0
   -2.9560   -1.0526   -2.9240 C   0  0
   -4.4576    2.9487   -1.7300 C   0  0
   -4.2490   -1.4785   -3.2281 C   0  0
   -2.3166    2.3659   -0.7743 C   0  0
   -2.3176   -1.5252   -1.7773 C   0  0
   -0.1849    1.4028   -0.3454 C   0  0
   -0.7007   -1.0508   -0.0992 C   0  0
    0.3384    0.0448    0.1116 C   0  0  3  0  0  0
    2.4052   -1.2624    2.3278 N   0  5
    0.6364    0.1298    1.5505 N   0  0
    1.5589   -0.5982    1.9486 N   0  3
   -5.8465    2.6949   -1.8824 N   0  3
   -4.8992   -0.9969   -4.3951 N   0  3
   -6.5268    3.4551   -2.6130 O   0  5
   -6.0625   -1.3924   -4.6499 O   0  5
   -6.3551    1.7174   -1.2825 O   0  0
   -4.2928   -0.1889   -5.1392 O   0  0
   -1.5533    1.5496    0.0175 O   0  0
   -1.0479   -1.1073   -1.4780 O   0  0
   -2.0481    5.1203   -2.7499 H   0  0
   -4.7745   -3.5500   -0.5834 H   0  0
   -4.4640    4.6856   -3.0194 H   0  0
   -5.9116   -2.7171   -2.6111 H   0  0
   -0.6666    3.6454   -1.3196 H   0  0
   -2.4800   -2.7952   -0.0403 H   0  0
   -4.1326    1.2729   -0.4069 H   0  0
   -2.4392   -0.3527   -3.5768 H   0  0
   -0.1112    1.5164   -1.4321 H   0  0
    0.3738    2.2201    0.1224 H   0  0
   -1.6124   -0.8349    0.4671 H   0  0
   -0.3181   -2.0317    0.2031 H   0  0
    1.2713   -0.2043   -0.4073 H   0  0
  1  3  1  0
  1  5  2  0
  2  4  2  0
  2  6  1  0
  3  9  2  0
  4 10  1  0
  5 11  1  0
  6 12  2  0
  7  9  1  0
  7 11  2  0
  8 10  2  0
  8 12  1  0
  9 19  1  0
 10 20  1  0
 11 25  1  0
 12 26  1  0
 13 15  1  0
 13 25  1  0
 14 15  1  0
 14 26  1  0
 15 17  1  0
 16 18  2  0
 17 18  2  0
 19 21  1  0
 19 23  2  0
 20 22  1  0
 20 24  2  0
  1 27  1  0
  2 28  1  0
  3 29  1  0
  4 30  1  0
  5 31  1  0
  6 32  1  0
  7 33  1  0
  8 34  1  0
 13 35  1  0
 13 36  1  0
 14 37  1  0
 14 38  1  0
 15 39  1  0
M  CHG  6  16  -1  18   1  19   1  20   1  21  -1  22  -1
M  END
> <Name>
BR010596

$$$$
BR010597
  SciTegic05062102053D

 47 50  0  0  1  0            999 V2000
    9.7359   -1.6736    1.2230 C   0  0
    2.7604    1.2199    6.9097 C   0  0
    8.5821   -1.2509    1.8763 C   0  0
    2.7420    0.1154    6.0632 C   0  0
    7.6159   -0.8219   -3.0726 C   0  0
    1.5974    4.1061    3.1695 C   0  0
    9.7888   -1.6744   -0.1712 C   0  0
    2.4809    2.4907    6.4062 C   0  0
    7.4767   -0.8273    1.1380 C   0  0
    2.4441    0.2774    4.7099 C   0  0
    8.7213   -1.2454   -2.3343 C   0  0
    1.8953    3.9441    4.5228 C   0  0
    6.4620   -0.3992   -2.4193 C   0  0
    1.5791    3.0016    2.3229 C   0  0
    8.6856   -1.2513   -0.9304 C   0  0
    2.1790    2.6723    5.0468 C   0  0
    7.5123   -0.8214   -0.2660 C   0  0
    2.1604    1.5492    4.1859 C   0  0
    6.4091   -0.3984   -1.0252 C   0  0
    1.8585    1.7308    2.8264 C   0  0
    4.0685   -0.7017   -0.7327 C   0  0
    2.7314    0.7243    0.8564 C   0  0
    3.1258   -0.6959    0.4665 C   0  0  3  0  0  0
    3.5909   -3.6699    1.8194 N   0  5
    3.8288   -1.3103    1.6043 N   0  0
    3.7005   -2.5398    1.7103 N   0  3
    5.2556    0.0249   -0.4287 O   0  0
    1.8285    0.6743    1.9550 O   0  0
   10.5961   -2.0033    1.7984 H   0  0
    2.9924    1.0930    7.9632 H   0  0
    8.5417   -1.2506    2.9617 H   0  0
    2.9597   -0.8735    6.4560 H   0  0
    7.6565   -0.8222   -4.1580 H   0  0
    1.3797    5.0952    2.7770 H   0  0
   10.7011   -2.0090   -0.6607 H   0  0
    2.5010    3.3397    7.0863 H   0  0
    6.5908   -0.5032    1.6797 H   0  0
    2.4382   -0.6065    4.0759 H   0  0
    9.6127   -1.5716   -2.8660 H   0  0
    1.9039    4.8215    5.1661 H   0  0
    5.6054   -0.0708   -3.0019 H   0  0
    1.3461    3.1365    1.2701 H   0  0
    3.6053   -0.2372   -1.6097 H   0  0
    4.3614   -1.7221   -1.0009 H   0  0
    2.2227    1.2270    0.0275 H   0  0
    3.6039    1.3178    1.1505 H   0  0
    2.2347   -1.3001    0.2603 H   0  0
  1  3  1  0
  1  7  2  0
  2  4  1  0
  2  8  2  0
  3  9  2  0
  4 10  2  0
  5 11  2  0
  5 13  1  0
  6 12  1  0
  6 14  2  0
  7 15  1  0
  8 16  1  0
  9 17  1  0
 10 18  1  0
 11 15  1  0
 12 16  2  0
 13 19  2  0
 14 20  1  0
 15 17  2  0
 16 18  1  0
 17 19  1  0
 18 20  2  0
 19 27  1  0
 20 28  1  0
 21 23  1  0
 21 27  1  0
 22 23  1  0
 22 28  1  0
 23 25  1  0
 24 26  2  0
 25 26  2  0
  1 29  1  0
  2 30  1  0
  3 31  1  0
  4 32  1  0
  5 33  1  0
  6 34  1  0
  7 35  1  0
  8 36  1  0
  9 37  1  0
 10 38  1  0
 11 39  1  0
 12 40  1  0
 13 41  1  0
 14 42  1  0
 21 43  1  0
 21 44  1  0
 22 45  1  0
 22 46  1  0
 23 47  1  0
M  CHG  2  24  -1  26   1
M  END
> <Name>
BR010597

$$$$
BR010598
  SciTegic05062102053D

 37 38  0  0  1  0            999 V2000
    1.4207    3.7477    2.2921 C   0  0
    0.1406   -3.2822    2.9577 C   0  0
   -0.6032    6.2753    0.4658 C   0  0
   -2.8577   -5.1154    1.7454 C   0  0
   -0.8930    5.5941   -0.7164 C   0  0
   -2.9800   -4.6163    0.4487 C   0  0
    0.1620    5.6593    1.4561 C   0  0
   -1.8241   -4.6702    2.5695 C   0  0
   -0.4176    4.2969   -0.9083 C   0  0
   -2.0687   -3.6721   -0.0240 C   0  0
    0.6374    4.3621    1.2642 C   0  0
   -0.9127   -3.7260    2.0968 C   0  0
    0.3476    3.6808    0.0820 C   0  0
   -1.0350   -3.2269    0.8000 C   0  0
   -0.1849    1.4028   -0.3454 C   0  0
   -0.7007   -1.0508   -0.0992 C   0  0
    0.3384    0.0448    0.1116 C   0  0  3  0  0  0
    2.8993   -0.2819    2.1676 N   0  5
    2.0560    3.2495    3.1257 N   0  0
    0.9949   -2.9223    3.6559 N   0  0
    0.6364    0.1298    1.5505 N   0  0
    1.8171   -0.0859    1.8649 N   0  3
    0.8015    2.4065   -0.1327 O   0  0
   -0.1541   -2.2992    0.3103 O   0  0
   -0.9735    7.2854    0.6150 H   0  0
   -3.5674   -5.8507    2.1133 H   0  0
   -1.4888    6.0738   -1.4874 H   0  0
   -3.7849   -4.9629   -0.1929 H   0  0
    0.3790    6.2042    2.3719 H   0  0
   -1.7428   -5.0694    3.5778 H   0  0
   -0.6473    3.7722   -1.8318 H   0  0
   -2.1700   -3.2876   -1.0354 H   0  0
   -1.0846    1.6930    0.2075 H   0  0
   -0.4276    1.3945   -1.4131 H   0  0
   -0.9679   -1.1333   -1.1577 H   0  0
   -1.6089   -0.8614    0.4831 H   0  0
    1.2713   -0.2043   -0.4073 H   0  0
  1 11  1  0
  1 19  3  0
  2 12  1  0
  2 20  3  0
  3  5  2  0
  3  7  1  0
  4  6  1  0
  4  8  2  0
  5  9  1  0
  6 10  2  0
  7 11  2  0
  8 12  1  0
  9 13  2  0
 10 14  1  0
 11 13  1  0
 12 14  2  0
 13 23  1  0
 14 24  1  0
 15 17  1  0
 15 23  1  0
 16 17  1  0
 16 24  1  0
 17 21  1  0
 18 22  2  0
 21 22  2  0
  3 25  1  0
  4 26  1  0
  5 27  1  0
  6 28  1  0
  7 29  1  0
  8 30  1  0
  9 31  1  0
 10 32  1  0
 15 33  1  0
 15 34  1  0
 16 35  1  0
 16 36  1  0
 17 37  1  0
M  CHG  2  18  -1  22   1
M  END
> <Name>
BR010598

$$$$
BR010599
  SciTegic05062102053D

 37 38  0  0  1  0            999 V2000
    1.3727    6.7563    1.9115 C   0  0
   -1.0821   -6.0449    3.2317 C   0  0
   -1.3141    5.3974   -0.2777 C   0  0
   -3.2503   -4.1901    0.8406 C   0  0
   -0.5789    6.2759    0.5181 C   0  0
   -2.8304   -5.1156    1.7960 C   0  0
   -0.8509    4.0998   -0.4957 C   0  0
   -2.3525   -3.2458    0.3426 C   0  0
    1.0828    4.5593    0.8778 C   0  0
   -0.6151   -4.1524    1.7554 C   0  0
    0.6196    5.8569    1.0958 C   0  0
   -1.5128   -5.0967    2.2534 C   0  0
    0.3476    3.6808    0.0820 C   0  0
   -1.0350   -3.2269    0.8000 C   0  0
   -0.1849    1.4028   -0.3454 C   0  0
   -0.7007   -1.0508   -0.0992 C   0  0
    0.3384    0.0448    0.1116 C   0  0  3  0  0  0
    2.8993   -0.2819    2.1676 N   0  5
    1.9845    7.4868    2.5740 N   0  0
   -0.7324   -6.8151    4.0262 N   0  0
    0.6364    0.1298    1.5505 N   0  0
    1.8171   -0.0859    1.8649 N   0  3
    0.8015    2.4065   -0.1327 O   0  0
   -0.1541   -2.2992    0.3103 O   0  0
   -2.2470    5.7236   -0.7280 H   0  0
   -4.2763   -4.2044    0.4847 H   0  0
   -0.9533    7.2842    0.6788 H   0  0
   -3.5421   -5.8456    2.1745 H   0  0
   -1.4280    3.4199   -1.1165 H   0  0
   -2.6853   -2.5274   -0.4017 H   0  0
    2.0171    4.2242    1.3237 H   0  0
    0.4144   -4.1297    2.1072 H   0  0
   -1.0846    1.6930    0.2075 H   0  0
   -0.4276    1.3945   -1.4131 H   0  0
   -0.9679   -1.1333   -1.1577 H   0  0
   -1.6089   -0.8614    0.4831 H   0  0
    1.2713   -0.2043   -0.4073 H   0  0
  1 11  1  0
  1 19  3  0
  2 12  1  0
  2 20  3  0
  3  5  2  0
  3  7  1  0
  4  6  1  0
  4  8  2  0
  5 11  1  0
  6 12  2  0
  7 13  2  0
  8 14  1  0
  9 11  2  0
  9 13  1  0
 10 12  1  0
 10 14  2  0
 13 23  1  0
 14 24  1  0
 15 17  1  0
 15 23  1  0
 16 17  1  0
 16 24  1  0
 17 21  1  0
 18 22  2  0
 21 22  2  0
  3 25  1  0
  4 26  1  0
  5 27  1  0
  6 28  1  0
  7 29  1  0
  8 30  1  0
  9 31  1  0
 10 32  1  0
 15 33  1  0
 15 34  1  0
 16 35  1  0
 16 36  1  0
 17 37  1  0
M  CHG  2  18  -1  22   1
M  END
> <Name>
BR010599

$$$$
BR010600
  SciTegic05062102053D

 37 38  0  0  0  0            999 V2000
   -1.0492    7.6064    0.7417 C   0  0
   -3.7479   -6.0828    2.3100 C   0  0
   -1.3129    5.3985   -0.2773 C   0  0
    0.6217    5.8568    1.0954 C   0  0
   -3.2499   -4.1908    0.8421 C   0  0
   -1.5116   -5.0959    2.2550 C   0  0
   -0.8508    4.1007   -0.4954 C   0  0
    1.0839    4.5589    0.8774 C   0  0
   -2.3527   -3.2465    0.3431 C   0  0
   -0.6144   -4.1516    1.7559 C   0  0
   -0.5767    6.2766    0.5181 C   0  0
   -2.8294   -5.1154    1.7981 C   0  0
    0.3476    3.6808    0.0820 C   0  0
   -1.0350   -3.2269    0.8000 C   0  0
   -0.1849    1.4028   -0.3454 C   0  0
   -0.7007   -1.0508   -0.0992 C   0  0
    0.3384    0.0448    0.1116 C   0  0
    2.8993   -0.2819    2.1676 N   0  5
   -1.4330    8.6865    0.9232 N   0  0
   -4.4940   -6.8685    2.7258 N   0  0
    0.6364    0.1298    1.5505 N   0  0
    1.8171   -0.0859    1.8649 N   0  3
    0.8015    2.4065   -0.1327 O   0  0
   -0.1541   -2.2992    0.3103 O   0  0
   -2.2487    5.7114   -0.7342 H   0  0
    1.2069    6.5296    1.7179 H   0  0
   -4.2740   -4.1934    0.4765 H   0  0
   -1.1686   -5.8101    2.9998 H   0  0
   -1.4282    3.4210   -1.1162 H   0  0
    2.0184    4.2382    1.3297 H   0  0
   -2.6859   -2.5282   -0.4011 H   0  0
    0.4107   -4.1414    2.1163 H   0  0
   -1.0846    1.6930    0.2075 H   0  0
   -0.4276    1.3945   -1.4131 H   0  0
   -0.9679   -1.1333   -1.1577 H   0  0
   -1.6089   -0.8614    0.4831 H   0  0
    1.2713   -0.2043   -0.4073 H   0  0
  1 11  1  0
  1 19  3  0
  2 12  1  0
  2 20  3  0
  3  7  2  0
  3 11  1  0
  4  8  1  0
  4 11  2  0
  5  9  2  0
  5 12  1  0
  6 10  1  0
  6 12  2  0
  7 13  1  0
  8 13  2  0
  9 14  1  0
 10 14  2  0
 13 23  1  0
 14 24  1  0
 15 17  1  0
 15 23  1  0
 16 17  1  0
 16 24  1  0
 17 21  1  0
 18 22  2  0
 21 22  2  0
  3 25  1  0
  4 26  1  0
  5 27  1  0
  6 28  1  0
  7 29  1  0
  8 30  1  0
  9 31  1  0
 10 32  1  0
 15 33  1  0
 15 34  1  0
 16 35  1  0
 16 36  1  0
 17 37  1  0
M  CHG  2  18  -1  22   1
M  END
> <Name>
BR010600

$$$$
BR010601
  SciTegic05062102053D

 39 40  0  0  1  0            999 V2000
   -0.6036    6.2741    0.4732 C   0  0
   -2.8524   -5.1184    1.7498 C   0  0
   -0.8934    5.5961   -0.7109 C   0  0
   -2.9784   -4.6197    0.4532 C   0  0
    0.1619    5.6554    1.4616 C   0  0
   -1.8177   -4.6713    2.5715 C   0  0
   -0.4179    4.2995   -0.9065 C   0  0
   -2.0697   -3.6740   -0.0217 C   0  0
    0.6375    4.3588    1.2660 C   0  0
   -0.9090   -3.7256    2.0966 C   0  0
    0.3476    3.6808    0.0820 C   0  0
   -1.0350   -3.2269    0.8000 C   0  0
   -0.1849    1.4028   -0.3454 C   0  0
   -0.7007   -1.0508   -0.0992 C   0  0
    0.3384    0.0448    0.1116 C   0  0  3  0  0  0
    2.8993   -0.2819    2.1676 N   0  5
    0.6364    0.1298    1.5505 N   0  0
    1.8171   -0.0859    1.8649 N   0  3
    1.4165    3.7435    2.2842 N   0  3
    0.1397   -3.2809    2.9479 N   0  3
    0.8348    3.0771    3.1728 O   0  5
    1.2313   -3.8976    2.9376 O   0  5
    2.6620    3.8852    2.2630 O   0  0
   -0.0582   -2.2850    3.6834 O   0  0
    0.8015    2.4065   -0.1327 O   0  0
   -0.1541   -2.2992    0.3103 O   0  0
   -0.9741    7.2837    0.6257 H   0  0
   -3.5598   -5.8550    2.1195 H   0  0
   -1.4893    6.0779   -1.4806 H   0  0
   -3.7842   -4.9676   -0.1866 H   0  0
    0.3802    6.1961    2.3795 H   0  0
   -1.7318   -5.0687    3.5800 H   0  0
   -0.6474    3.7771   -1.8316 H   0  0
   -2.1739   -3.2895   -1.0330 H   0  0
   -1.0846    1.6930    0.2075 H   0  0
   -0.4276    1.3945   -1.4131 H   0  0
   -0.9679   -1.1333   -1.1577 H   0  0
   -1.6089   -0.8614    0.4831 H   0  0
    1.2713   -0.2043   -0.4073 H   0  0
  1  3  2  0
  1  5  1  0
  2  4  1  0
  2  6  2  0
  3  7  1  0
  4  8  2  0
  5  9  2  0
  6 10  1  0
  7 11  2  0
  8 12  1  0
  9 11  1  0
  9 19  1  0
 10 12  2  0
 10 20  1  0
 11 25  1  0
 12 26  1  0
 13 15  1  0
 13 25  1  0
 14 15  1  0
 14 26  1  0
 15 17  1  0
 16 18  2  0
 17 18  2  0
 19 21  1  0
 19 23  2  0
 20 22  1  0
 20 24  2  0
  1 27  1  0
  2 28  1  0
  3 29  1  0
  4 30  1  0
  5 31  1  0
  6 32  1  0
  7 33  1  0
  8 34  1  0
 13 35  1  0
 13 36  1  0
 14 37  1  0
 14 38  1  0
 15 39  1  0
M  CHG  6  16  -1  18   1  19   1  20   1  21  -1  22  -1
M  END
> <Name>
BR010601

$$$$
BR010602
  SciTegic05062102053D

 39 40  0  0  0  0            999 V2000
   -1.3131    5.3984   -0.2766 C   0  0
    0.6212    5.8563    1.0965 C   0  0
   -3.2497   -4.1913    0.8418 C   0  0
   -1.5111   -5.0967    2.2541 C   0  0
   -0.8508    4.1008   -0.4953 C   0  0
    1.0836    4.5586    0.8779 C   0  0
   -2.3528   -3.2466    0.3432 C   0  0
   -0.6141   -4.1519    1.7555 C   0  0
   -0.5771    6.2763    0.5193 C   0  0
   -2.8289   -5.1163    1.7973 C   0  0
    0.3476    3.6808    0.0820 C   0  0
   -1.0350   -3.2269    0.8000 C   0  0
   -0.1849    1.4028   -0.3454 C   0  0
   -0.7007   -1.0508   -0.0992 C   0  0
    0.3384    0.0448    0.1116 C   0  0
    2.8993   -0.2819    2.1676 N   0  5
    0.6364    0.1298    1.5505 N   0  0
    1.8171   -0.0859    1.8649 N   0  3
   -1.0474    7.5974    0.7419 N   0  3
   -3.7418   -6.0780    2.3052 N   0  3
   -2.1277    7.9554    0.2133 O   0  5
   -4.9227   -6.0787    1.8812 O   0  5
   -0.3701    8.3707    1.4613 O   0  0
   -3.3424   -6.9012    3.1639 O   0  0
    0.8015    2.4065   -0.1327 O   0  0
   -0.1541   -2.2992    0.3103 O   0  0
   -2.2489    5.7129   -0.7322 H   0  0
    1.2052    6.5303    1.7186 H   0  0
   -4.2739   -4.1959    0.4770 H   0  0
   -1.1698   -5.8115    2.9989 H   0  0
   -1.4287    3.4214   -1.1160 H   0  0
    2.0181    4.2374    1.3300 H   0  0
   -2.6863   -2.5288   -0.4012 H   0  0
    0.4111   -4.1414    2.1155 H   0  0
   -1.0846    1.6930    0.2075 H   0  0
   -0.4276    1.3945   -1.4131 H   0  0
   -0.9679   -1.1333   -1.1577 H   0  0
   -1.6089   -0.8614    0.4831 H   0  0
    1.2713   -0.2043   -0.4073 H   0  0
  1  5  2  0
  1  9  1  0
  2  6  1  0
  2  9  2  0
  3  7  2  0
  3 10  1  0
  4  8  1  0
  4 10  2  0
  5 11  1  0
  6 11  2  0
  7 12  1  0
  8 12  2  0
  9 19  1  0
 10 20  1  0
 11 25  1  0
 12 26  1  0
 13 15  1  0
 13 25  1  0
 14 15  1  0
 14 26  1  0
 15 17  1  0
 16 18  2  0
 17 18  2  0
 19 21  1  0
 19 23  2  0
 20 22  1  0
 20 24  2  0
  1 27  1  0
  2 28  1  0
  3 29  1  0
  4 30  1  0
  5 31  1  0
  6 32  1  0
  7 33  1  0
  8 34  1  0
 13 35  1  0
 13 36  1  0
 14 37  1  0
 14 38  1  0
 15 39  1  0
M  CHG  6  16  -1  18   1  19   1  20   1  21  -1  22  -1
M  END
> <Name>
BR010602

$$$$
BR010603
  SciTegic05062102053D

 47 48  0  0  1  0            999 V2000
   -1.9785    5.8064    1.0618 C   0  0
   -2.8518   -5.1128    1.7619 C   0  0
   -1.8989    5.3144   -0.2409 C   0  0
   -2.9798   -4.6202    0.4633 C   0  0
   -1.8496    4.9369    2.1449 C   0  0
   -1.8153   -4.6625    2.5796 C   0  0
   -1.6905    3.9528   -0.4607 C   0  0
   -2.0714   -3.6772   -0.0177 C   0  0
   -1.6412    3.5753    1.9252 C   0  0
   -0.9069   -3.7196    2.0987 C   0  0
   -1.5616    3.0832    0.6224 C   0  0
   -1.0350   -3.2269    0.8000 C   0  0
   -1.5094    2.6849    3.0699 C   0  0
    0.1678   -3.2630    2.9689 C   0  0
   -0.7851    2.5568    5.3379 C   0  0
    0.7705   -2.8678    5.2416 C   0  0
   -0.1849    1.4028   -0.3454 C   0  0
   -0.7007   -1.0508   -0.0992 C   0  0
    0.3384    0.0448    0.1116 C   0  0  3  0  0  0
    2.8433    0.8249    2.1139 N   0  5
    0.6364    0.1298    1.5505 N   0  0
    1.7879    0.4924    1.8368 N   0  3
   -1.8442    1.4940    3.0706 O   0  0
    1.2782   -2.8903    2.5707 O   0  0
   -1.3554    1.7499    0.3862 O   0  0
   -0.1541   -2.2992    0.3103 O   0  0
   -0.9669    3.3300    4.1468 O   0  0
   -0.2041   -3.2962    4.2844 O   0  0
   -2.1408    6.8669    1.2326 H   0  0
   -3.5594   -5.8472    2.1361 H   0  0
   -1.9999    5.9918   -1.0837 H   0  0
   -3.7867   -4.9716   -0.1731 H   0  0
   -1.9128    5.3316    3.1557 H   0  0
   -1.7255   -5.0531    3.5901 H   0  0
   -1.6293    3.5760   -1.4780 H   0  0
   -2.1770   -3.2973   -1.0303 H   0  0
   -0.3470    3.1847    6.1176 H   0  0
   -0.1287    1.7089    5.1264 H   0  0
   -1.7570    2.1876    5.6739 H   0  0
    0.3511   -2.9421    6.2480 H   0  0
    1.0596   -1.8350    5.0312 H   0  0
    1.6493   -3.5125    5.1670 H   0  0
   -0.4432    1.3960   -1.4096 H   0  0
    0.5581    2.1897   -0.1790 H   0  0
   -0.9679   -1.1333   -1.1577 H   0  0
   -1.6089   -0.8614    0.4831 H   0  0
    1.2713   -0.2043   -0.4073 H   0  0
  1  3  2  0
  1  5  1  0
  2  4  1  0
  2  6  2  0
  3  7  1  0
  4  8  2  0
  5  9  2  0
  6 10  1  0
  7 11  2  0
  8 12  1  0
  9 11  1  0
  9 13  1  0
 10 12  2  0
 10 14  1  0
 11 25  1  0
 12 26  1  0
 13 23  2  0
 13 27  1  0
 14 24  2  0
 14 28  1  0
 15 27  1  0
 16 28  1  0
 17 19  1  0
 17 25  1  0
 18 19  1  0
 18 26  1  0
 19 21  1  0
 20 22  2  0
 21 22  2  0
  1 29  1  0
  2 30  1  0
  3 31  1  0
  4 32  1  0
  5 33  1  0
  6 34  1  0
  7 35  1  0
  8 36  1  0
 15 37  1  0
 15 38  1  0
 15 39  1  0
 16 40  1  0
 16 41  1  0
 16 42  1  0
 17 43  1  0
 17 44  1  0
 18 45  1  0
 18 46  1  0
 19 47  1  0
M  CHG  2  20  -1  22   1
M  END
> <Name>
BR010603

$$$$
BR010604
  SciTegic05062102053D

 47 48  0  0  1  0            999 V2000
   -2.7304    4.3312   -1.8256 C   0  0
   -1.5116   -5.0966    2.2541 C   0  0
   -4.0891    4.2343   -1.5257 C   0  0
   -2.8293   -5.1159    1.7973 C   0  0
   -1.8135    3.4981   -1.1845 C   0  0
   -0.6144   -4.1520    1.7555 C   0  0
   -3.6143    2.4713    0.0565 C   0  0
   -2.3527   -3.2463    0.3432 C   0  0
   -4.5311    3.3044   -0.5847 C   0  0
   -3.2499   -4.1908    0.8418 C   0  0
   -2.2555    2.5682   -0.2434 C   0  0
   -1.0350   -3.2269    0.8000 C   0  0
   -5.9479    3.2029   -0.2718 C   0  0
   -4.6240   -4.2105    0.3653 C   0  0
   -7.6656    1.7026    0.4283 C   0  0
   -6.3902   -2.8503   -0.4845 C   0  0
   -0.1849    1.4028   -0.3454 C   0  0
   -0.7007   -1.0508   -0.0992 C   0  0
    0.3384    0.0448    0.1116 C   0  0  3  0  0  0
    2.8433    0.8249    2.1139 N   0  5
    0.6364    0.1298    1.5505 N   0  0
    1.7879    0.4924    1.8368 N   0  3
   -6.7472    4.1466   -0.3304 O   0  0
   -5.3266   -5.2276    0.2963 O   0  0
   -1.3554    1.7499    0.3862 O   0  0
   -0.1541   -2.2992    0.3103 O   0  0
   -6.2919    1.9307    0.0959 O   0  0
   -5.0483   -2.9616    0.0019 O   0  0
   -2.3864    5.0553   -2.5583 H   0  0
   -1.1843   -5.8169    2.9980 H   0  0
   -4.7951    4.8875   -2.0318 H   0  0
   -3.5205   -5.8554    2.1931 H   0  0
   -0.7563    3.5783   -1.4224 H   0  0
    0.4108   -4.1419    2.1153 H   0  0
   -3.9537    1.7440    0.7906 H   0  0
   -2.6757   -2.5222   -0.4015 H   0  0
   -7.8057    0.6540    0.7022 H   0  0
   -8.2954    1.9535   -0.4290 H   0  0
   -7.9366    2.3374    1.2752 H   0  0
   -6.6015   -1.8086   -0.7380 H   0  0
   -7.0867   -3.1984    0.2824 H   0  0
   -6.4966   -3.4693   -1.3786 H   0  0
   -0.4432    1.3960   -1.4096 H   0  0
    0.5581    2.1897   -0.1790 H   0  0
   -0.9679   -1.1333   -1.1577 H   0  0
   -1.6089   -0.8614    0.4831 H   0  0
    1.2713   -0.2043   -0.4073 H   0  0
  1  3  2  0
  1  5  1  0
  2  4  1  0
  2  6  2  0
  3  9  1  0
  4 10  2  0
  5 11  2  0
  6 12  1  0
  7  9  2  0
  7 11  1  0
  8 10  1  0
  8 12  2  0
  9 13  1  0
 10 14  1  0
 11 25  1  0
 12 26  1  0
 13 23  2  0
 13 27  1  0
 14 24  2  0
 14 28  1  0
 15 27  1  0
 16 28  1  0
 17 19  1  0
 17 25  1  0
 18 19  1  0
 18 26  1  0
 19 21  1  0
 20 22  2  0
 21 22  2  0
  1 29  1  0
  2 30  1  0
  3 31  1  0
  4 32  1  0
  5 33  1  0
  6 34  1  0
  7 35  1  0
  8 36  1  0
 15 37  1  0
 15 38  1  0
 15 39  1  0
 16 40  1  0
 16 41  1  0
 16 42  1  0
 17 43  1  0
 17 44  1  0
 18 45  1  0
 18 46  1  0
 19 47  1  0
M  CHG  2  20  -1  22   1
M  END
> <Name>
BR010604

$$$$
BR010605
  SciTegic05062102053D

 47 48  0  0  0  0            999 V2000
   -1.3126    5.3989   -0.2765 C   0  0
    0.6221    5.8563    1.0964 C   0  0
   -3.2495   -4.1916    0.8425 C   0  0
   -1.5106   -5.0963    2.2547 C   0  0
   -0.8507    4.1011   -0.4951 C   0  0
    1.0840    4.5584    0.8777 C   0  0
   -2.3528   -3.2469    0.3434 C   0  0
   -0.6138   -4.1516    1.7557 C   0  0
   -0.5762    6.2766    0.5192 C   0  0
   -2.8284   -5.1163    1.7982 C   0  0
    0.3476    3.6808    0.0820 C   0  0
   -1.0350   -3.2269    0.8000 C   0  0
   -1.0578    7.6297    0.7475 C   0  0
   -3.7632   -6.1014    2.3184 C   0  0
   -0.5730    9.6892    1.8502 C   0  0
   -3.9913   -7.9353    3.8275 C   0  0
   -0.1849    1.4028   -0.3454 C   0  0
   -0.7007   -1.0508   -0.0992 C   0  0
    0.3384    0.0448    0.1116 C   0  0
    2.8993   -0.2819    2.1676 N   0  5
    0.6364    0.1298    1.5505 N   0  0
    1.8171   -0.0859    1.8649 N   0  3
   -2.1075    8.0881    0.2773 O   0  0
   -4.9484   -6.1936    1.9720 O   0  0
    0.8015    2.4065   -0.1327 O   0  0
   -0.1541   -2.2992    0.3103 O   0  0
   -0.2060    8.3382    1.5503 O   0  0
   -3.1704   -6.9193    3.2413 O   0  0
   -2.2480    5.7152   -0.7311 H   0  0
    1.2032    6.5325    1.7182 H   0  0
   -4.2740   -4.1977    0.4790 H   0  0
   -1.1725   -5.8127    2.9991 H   0  0
   -1.4288    3.4222   -1.1161 H   0  0
    2.0184    4.2368    1.3297 H   0  0
   -2.6869   -2.5291   -0.4008 H   0  0
    0.4115   -4.1407    2.1154 H   0  0
    0.1860   10.1392    2.4948 H   0  0
   -1.5448    9.7013    2.3502 H   0  0
   -0.6380   10.2552    0.9179 H   0  0
   -3.4012   -8.5143    4.5421 H   0  0
   -4.3780   -8.5903    3.0427 H   0  0
   -4.8267   -7.4610    4.3479 H   0  0
   -1.0846    1.6930    0.2075 H   0  0
   -0.4276    1.3945   -1.4131 H   0  0
   -0.9679   -1.1333   -1.1577 H   0  0
   -1.6089   -0.8614    0.4831 H   0  0
    1.2713   -0.2043   -0.4073 H   0  0
  1  5  2  0
  1  9  1  0
  2  6  1  0
  2  9  2  0
  3  7  2  0
  3 10  1  0
  4  8  1  0
  4 10  2  0
  5 11  1  0
  6 11  2  0
  7 12  1  0
  8 12  2  0
  9 13  1  0
 10 14  1  0
 11 25  1  0
 12 26  1  0
 13 23  2  0
 13 27  1  0
 14 24  2  0
 14 28  1  0
 15 27  1  0
 16 28  1  0
 17 19  1  0
 17 25  1  0
 18 19  1  0
 18 26  1  0
 19 21  1  0
 20 22  2  0
 21 22  2  0
  1 29  1  0
  2 30  1  0
  3 31  1  0
  4 32  1  0
  5 33  1  0
  6 34  1  0
  7 35  1  0
  8 36  1  0
 15 37  1  0
 15 38  1  0
 15 39  1  0
 16 40  1  0
 16 41  1  0
 16 42  1  0
 17 43  1  0
 17 44  1  0
 18 45  1  0
 18 46  1  0
 19 47  1  0
M  CHG  2  20  -1  22   1
M  END
> <Name>
BR010605

$$$$
BR010606
  SciTegic05062102053D

 43 44  0  0  1  0            999 V2000
   -0.5911    6.2751    0.4960 C   0  0
   -2.8406   -5.1179    1.7730 C   0  0
   -0.8881    5.6073   -0.6920 C   0  0
   -2.9767   -4.6272    0.4744 C   0  0
    0.1754    5.6458    1.4770 C   0  0
   -1.8017   -4.6630    2.5851 C   0  0
   -0.4188    4.3101   -0.8990 C   0  0
   -2.0739   -3.6817   -0.0121 C   0  0
    0.6447    4.3487    1.2700 C   0  0
   -0.8989   -3.7176    2.0986 C   0  0
    0.3476    3.6808    0.0820 C   0  0
   -1.0350   -3.2269    0.8000 C   0  0
    2.8047    3.9230    2.1694 C   0  0
    1.3379   -4.0097    2.8518 C   0  0
   -0.1849    1.4028   -0.3454 C   0  0
   -0.7007   -1.0508   -0.0992 C   0  0
    0.3384    0.0448    0.1116 C   0  0  3  0  0  0
    2.8993   -0.2819    2.1676 N   0  5
    0.6364    0.1298    1.5505 N   0  0
    1.8171   -0.0859    1.8649 N   0  3
    1.3912    3.7446    2.2362 O   0  0
    0.1121   -3.2822    2.9012 O   0  0
    0.8015    2.4065   -0.1327 O   0  0
   -0.1541   -2.2992    0.3103 O   0  0
   -0.9564    7.2854    0.6572 H   0  0
   -3.5438   -5.8541    2.1519 H   0  0
   -1.4849    6.0971   -1.4556 H   0  0
   -3.7853   -4.9813   -0.1578 H   0  0
    0.4034    6.1717    2.4002 H   0  0
   -1.7013   -5.0491    3.5959 H   0  0
   -0.6553    3.7950   -1.8260 H   0  0
   -2.1847   -3.3049   -1.0252 H   0  0
    3.2794    3.3902    2.9970 H   0  0
    3.0414    4.9885    2.2244 H   0  0
    3.1696    3.5192    1.2220 H   0  0
    2.0582   -3.5584    3.5386 H   0  0
    1.7312   -3.9940    1.8323 H   0  0
    1.1501   -5.0434    3.1519 H   0  0
   -1.0846    1.6930    0.2075 H   0  0
   -0.4276    1.3945   -1.4131 H   0  0
   -0.9679   -1.1333   -1.1577 H   0  0
   -1.6089   -0.8614    0.4831 H   0  0
    1.2713   -0.2043   -0.4073 H   0  0
  1  3  2  0
  1  5  1  0
  2  4  1  0
  2  6  2  0
  3  7  1  0
  4  8  2  0
  5  9  2  0
  6 10  1  0
  7 11  2  0
  8 12  1  0
  9 11  1  0
  9 21  1  0
 10 12  2  0
 10 22  1  0
 11 23  1  0
 12 24  1  0
 13 21  1  0
 14 22  1  0
 15 17  1  0
 15 23  1  0
 16 17  1  0
 16 24  1  0
 17 19  1  0
 18 20  2  0
 19 20  2  0
  1 25  1  0
  2 26  1  0
  3 27  1  0
  4 28  1  0
  5 29  1  0
  6 30  1  0
  7 31  1  0
  8 32  1  0
 13 33  1  0
 13 34  1  0
 13 35  1  0
 14 36  1  0
 14 37  1  0
 14 38  1  0
 15 39  1  0
 15 40  1  0
 16 41  1  0
 16 42  1  0
 17 43  1  0
M  CHG  2  18  -1  20   1
M  END
> <Name>
BR010606

$$$$
BR010607
  SciTegic05062102053D

 43 44  0  0  1  0            999 V2000
    0.6231    5.8569    1.0949 C   0  0
   -1.5110   -5.0952    2.2561 C   0  0
   -0.5740    6.2779    0.5160 C   0  0
   -2.8294   -5.1137    1.8013 C   0  0
    1.0839    4.5583    0.8779 C   0  0
   -0.6137   -4.1517    1.7555 C   0  0
   -0.8496    4.1019   -0.4970 C   0  0
   -2.3535   -3.2455    0.3452 C   0  0
   -1.3104    5.4005   -0.2800 C   0  0
   -3.2507   -4.1889    0.8458 C   0  0
    0.3476    3.6808    0.0820 C   0  0
   -1.0350   -3.2269    0.8000 C   0  0
   -3.1818    4.8630   -1.6455 C   0  0
   -4.9006   -3.2348   -0.5766 C   0  0
   -0.1849    1.4028   -0.3454 C   0  0
   -0.7007   -1.0508   -0.0992 C   0  0
    0.3384    0.0448    0.1116 C   0  0  3  0  0  0
    2.8993   -0.2819    2.1676 N   0  5
    0.6364    0.1298    1.5505 N   0  0
    1.8171   -0.0859    1.8649 N   0  3
   -2.4794    5.8110   -0.8431 O   0  0
   -4.5368   -4.2085    0.4007 O   0  0
    0.8015    2.4065   -0.1327 O   0  0
   -0.1541   -2.2992    0.3103 O   0  0
    1.1964    6.5401    1.7146 H   0  0
   -1.1830   -5.8152    3.0001 H   0  0
   -0.9283    7.2905    0.6888 H   0  0
   -3.5238   -5.8511    2.1946 H   0  0
    2.0178    4.2361    1.3304 H   0  0
    0.4118   -4.1411    2.1143 H   0  0
   -1.4236    3.4180   -1.1170 H   0  0
   -2.6817   -2.5250   -0.3997 H   0  0
   -4.0959    5.3190   -2.0334 H   0  0
   -3.4273    3.9850   -1.0427 H   0  0
   -2.5445    4.5626   -2.4805 H   0  0
   -5.9524   -3.3615   -0.8444 H   0  0
   -4.2712   -3.3534   -1.4623 H   0  0
   -4.7514   -2.2371   -0.1571 H   0  0
   -1.0846    1.6930    0.2075 H   0  0
   -0.4276    1.3945   -1.4131 H   0  0
   -0.9679   -1.1333   -1.1577 H   0  0
   -1.6089   -0.8614    0.4831 H   0  0
    1.2713   -0.2043   -0.4073 H   0  0
  1  3  2  0
  1  5  1  0
  2  4  1  0
  2  6  2  0
  3  9  1  0
  4 10  2  0
  5 11  2  0
  6 12  1  0
  7  9  2  0
  7 11  1  0
  8 10  1  0
  8 12  2  0
  9 21  1  0
 10 22  1  0
 11 23  1  0
 12 24  1  0
 13 21  1  0
 14 22  1  0
 15 17  1  0
 15 23  1  0
 16 17  1  0
 16 24  1  0
 17 19  1  0
 18 20  2  0
 19 20  2  0
  1 25  1  0
  2 26  1  0
  3 27  1  0
  4 28  1  0
  5 29  1  0
  6 30  1  0
  7 31  1  0
  8 32  1  0
 13 33  1  0
 13 34  1  0
 13 35  1  0
 14 36  1  0
 14 37  1  0
 14 38  1  0
 15 39  1  0
 15 40  1  0
 16 41  1  0
 16 42  1  0
 17 43  1  0
M  CHG  2  18  -1  20   1
M  END
> <Name>
BR010607

$$$$
BR010608
  SciTegic05062102053D

 43 44  0  0  0  0            999 V2000
    0.6214    5.8562    1.0967 C   0  0
   -1.3132    5.3985   -0.2762 C   0  0
   -3.2498   -4.1911    0.8420 C   0  0
   -1.5112   -5.0963    2.2545 C   0  0
    1.0837    4.5585    0.8779 C   0  0
   -0.8509    4.1008   -0.4951 C   0  0
   -2.3527   -3.2466    0.3432 C   0  0
   -0.6142   -4.1518    1.7557 C   0  0
   -0.5771    6.2762    0.5197 C   0  0
   -2.8290   -5.1159    1.7977 C   0  0
    0.3476    3.6808    0.0820 C   0  0
   -1.0350   -3.2269    0.8000 C   0  0
   -0.2283    8.3864    1.5594 C   0  0
   -5.0369   -5.9996    1.7766 C   0  0
   -0.1849    1.4028   -0.3454 C   0  0
   -0.7007   -1.0508   -0.0992 C   0  0
    0.3384    0.0448    0.1116 C   0  0
    2.8993   -0.2819    2.1676 N   0  5
    0.6364    0.1298    1.5505 N   0  0
    1.8171   -0.0859    1.8649 N   0  3
   -1.0293    7.5418    0.7343 O   0  0
   -3.7045   -6.0366    2.2858 O   0  0
    0.8015    2.4065   -0.1327 O   0  0
   -0.1541   -2.2992    0.3103 O   0  0
    1.1979    6.5346    1.7195 H   0  0
   -2.2480    5.7200   -0.7275 H   0  0
   -4.2756   -4.2000    0.4841 H   0  0
   -1.1783   -5.8138    2.9995 H   0  0
    2.0186    4.2373    1.3288 H   0  0
   -1.4286    3.4214   -1.1157 H   0  0
   -2.6857   -2.5295   -0.4021 H   0  0
    0.4110   -4.1410    2.1154 H   0  0
   -0.7032    9.3665    1.6485 H   0  0
    0.7665    8.4904    1.1188 H   0  0
   -0.1403    7.9352    2.5506 H   0  0
   -5.6302   -6.7863    2.2490 H   0  0
   -5.0180   -6.1434    0.6934 H   0  0
   -5.4779   -5.0266    2.0054 H   0  0
   -1.0846    1.6930    0.2075 H   0  0
   -0.4276    1.3945   -1.4131 H   0  0
   -0.9679   -1.1333   -1.1577 H   0  0
   -1.6089   -0.8614    0.4831 H   0  0
    1.2713   -0.2043   -0.4073 H   0  0
  1  5  2  0
  1  9  1  0
  2  6  1  0
  2  9  2  0
  3  7  2  0
  3 10  1  0
  4  8  1  0
  4 10  2  0
  5 11  1  0
  6 11  2  0
  7 12  1  0
  8 12  2  0
  9 21  1  0
 10 22  1  0
 11 23  1  0
 12 24  1  0
 13 21  1  0
 14 22  1  0
 15 17  1  0
 15 23  1  0
 16 17  1  0
 16 24  1  0
 17 19  1  0
 18 20  2  0
 19 20  2  0
  1 25  1  0
  2 26  1  0
  3 27  1  0
  4 28  1  0
  5 29  1  0
  6 30  1  0
  7 31  1  0
  8 32  1  0
 13 33  1  0
 13 34  1  0
 13 35  1  0
 14 36  1  0
 14 37  1  0
 14 38  1  0
 15 39  1  0
 15 40  1  0
 16 41  1  0
 16 42  1  0
 17 43  1  0
M  CHG  2  18  -1  20   1
M  END
> <Name>
BR010608

$$$$
BR010609
  SciTegic05062102053D

 41 42  0  0  1  0            999 V2000
   -0.5944    6.2752    0.4875 C   0  0
   -1.5935   -5.6817   -1.6360 C   0  0
   -0.8895    5.6036   -0.6989 C   0  0
   -2.4648   -4.8553   -0.9265 C   0  0
    0.1718    5.6497    1.4711 C   0  0
   -0.2339   -5.3753   -1.6945 C   0  0
   -0.4185    4.3064   -0.9016 C   0  0
   -1.9766   -3.7224   -0.2755 C   0  0
    0.6427    4.3525    1.2683 C   0  0
    0.2543   -4.2424   -1.0435 C   0  0
    0.3476    3.6808    0.0820 C   0  0
   -0.6170   -3.4159   -0.3340 C   0  0
    1.4609    3.6985    2.3321 C   0  0
    1.7122   -3.9298   -1.1172 C   0  0
   -0.1849    1.4028   -0.3454 C   0  0
   -0.7007   -1.0508   -0.0992 C   0  0
    0.3384    0.0448    0.1116 C   0  0  3  0  0  0
    2.8993   -0.2819    2.1676 N   0  5
    0.6364    0.1298    1.5505 N   0  0
    1.8171   -0.0859    1.8649 N   0  3
    0.8015    2.4065   -0.1327 O   0  0
   -0.1541   -2.2992    0.3103 O   0  0
   -0.9614    7.2853    0.6461 H   0  0
   -1.9733   -6.5638   -2.1437 H   0  0
   -1.4867    6.0907   -1.4640 H   0  0
   -3.5234   -5.0937   -0.8820 H   0  0
    0.3949    6.1810    2.3925 H   0  0
    0.4365   -6.0247   -2.2512 H   0  0
   -0.6517    3.7883   -1.8279 H   0  0
   -2.6602   -3.0823    0.2756 H   0  0
    0.8133    3.1544    3.0296 H   0  0
    2.1811    2.9920    1.9009 H   0  0
    2.0403    4.4386    2.8984 H   0  0
    1.9213   -3.2925   -1.9845 H   0  0
    2.0532   -3.4111   -0.2125 H   0  0
    2.3106   -4.8455   -1.2043 H   0  0
   -1.0846    1.6930    0.2075 H   0  0
   -0.4276    1.3945   -1.4131 H   0  0
   -0.9679   -1.1333   -1.1577 H   0  0
   -1.6089   -0.8614    0.4831 H   0  0
    1.2713   -0.2043   -0.4073 H   0  0
  1  3  2  0
  1  5  1  0
  2  4  1  0
  2  6  2  0
  3  7  1  0
  4  8  2  0
  5  9  2  0
  6 10  1  0
  7 11  2  0
  8 12  1  0
  9 11  1  0
  9 13  1  0
 10 12  2  0
 10 14  1  0
 11 21  1  0
 12 22  1  0
 15 17  1  0
 15 21  1  0
 16 17  1  0
 16 22  1  0
 17 19  1  0
 18 20  2  0
 19 20  2  0
  1 23  1  0
  2 24  1  0
  3 25  1  0
  4 26  1  0
  5 27  1  0
  6 28  1  0
  7 29  1  0
  8 30  1  0
 13 31  1  0
 13 32  1  0
 13 33  1  0
 14 34  1  0
 14 35  1  0
 14 36  1  0
 15 37  1  0
 15 38  1  0
 16 39  1  0
 16 40  1  0
 17 41  1  0
M  CHG  2  18  -1  20   1
M  END
> <Name>
BR010609

$$$$
BR010610
  SciTegic05062102053D

 41 42  0  0  1  0            999 V2000
   -1.3134    5.3983   -0.2762 C   0  0
   -3.2496   -4.1916    0.8414 C   0  0
   -0.5779    6.2759    0.5202 C   0  0
   -2.8286   -5.1171    1.7963 C   0  0
   -0.8508    4.1007   -0.4953 C   0  0
   -2.3527   -3.2466    0.3432 C   0  0
    1.0833    4.5584    0.8784 C   0  0
   -0.6140   -4.1524    1.7550 C   0  0
    0.6205    5.8560    1.0975 C   0  0
   -1.5108   -5.0975    2.2531 C   0  0
    0.3476    3.6808    0.0820 C   0  0
   -1.0350   -3.2269    0.8000 C   0  0
    1.4071    6.7946    1.9486 C   0  0
   -1.0610   -6.0867    3.2745 C   0  0
   -0.1849    1.4028   -0.3454 C   0  0
   -0.7007   -1.0508   -0.0992 C   0  0
    0.3384    0.0448    0.1116 C   0  0  3  0  0  0
    2.8993   -0.2819    2.1676 N   0  5
    0.6364    0.1298    1.5505 N   0  0
    1.8171   -0.0859    1.8649 N   0  3
    0.8015    2.4065   -0.1327 O   0  0
   -0.1541   -2.2992    0.3103 O   0  0
   -2.2466    5.7251   -0.7252 H   0  0
   -4.2754   -4.2073    0.4855 H   0  0
   -0.9461    7.2850    0.6849 H   0  0
   -3.5347   -5.8494    2.1790 H   0  0
   -1.4283    3.4220   -1.1166 H   0  0
   -2.6868   -2.5284   -0.4004 H   0  0
    2.0173    4.2284    1.3270 H   0  0
    0.4140   -4.1345    2.1095 H   0  0
    1.0954    6.7121    2.9970 H   0  0
    2.4824    6.5820    1.8876 H   0  0
    1.2704    7.8350    1.6258 H   0  0
   -0.6765   -6.9910    2.7871 H   0  0
   -0.2689   -5.6707    3.9105 H   0  0
   -1.8850   -6.3741    3.9408 H   0  0
   -1.0846    1.6930    0.2075 H   0  0
   -0.4276    1.3945   -1.4131 H   0  0
   -0.9679   -1.1333   -1.1577 H   0  0
   -1.6089   -0.8614    0.4831 H   0  0
    1.2713   -0.2043   -0.4073 H   0  0
  1  3  2  0
  1  5  1  0
  2  4  1  0
  2  6  2  0
  3  9  1  0
  4 10  2  0
  5 11  2  0
  6 12  1  0
  7  9  2  0
  7 11  1  0
  8 10  1  0
  8 12  2  0
  9 13  1  0
 10 14  1  0
 11 21  1  0
 12 22  1  0
 15 17  1  0
 15 21  1  0
 16 17  1  0
 16 22  1  0
 17 19  1  0
 18 20  2  0
 19 20  2  0
  1 23  1  0
  2 24  1  0
  3 25  1  0
  4 26  1  0
  5 27  1  0
  6 28  1  0
  7 29  1  0
  8 30  1  0
 13 31  1  0
 13 32  1  0
 13 33  1  0
 14 34  1  0
 14 35  1  0
 14 36  1  0
 15 37  1  0
 15 38  1  0
 16 39  1  0
 16 40  1  0
 17 41  1  0
M  CHG  2  18  -1  20   1
M  END
> <Name>
BR010610

$$$$
BR010611
  SciTegic05062102053D

 41 42  0  0  0  0            999 V2000
   -1.3139    5.3978   -0.2758 C   0  0
    0.6197    5.8557    1.0984 C   0  0
   -3.2494   -4.1919    0.8407 C   0  0
   -1.5107   -5.0982    2.2522 C   0  0
   -0.8508    4.1006   -0.4954 C   0  0
    1.0829    4.5584    0.8789 C   0  0
   -2.3527   -3.2464    0.3431 C   0  0
   -0.6139   -4.1528    1.7546 C   0  0
   -0.5786    6.2754    0.5210 C   0  0
   -2.8285   -5.1178    1.7953 C   0  0
    0.3476    3.6808    0.0820 C   0  0
   -1.0350   -3.2269    0.8000 C   0  0
   -1.0740    7.6622    0.7564 C   0  0
   -3.7869   -6.1290    2.3269 C   0  0
   -0.1849    1.4028   -0.3454 C   0  0
   -0.7007   -1.0508   -0.0992 C   0  0
    0.3384    0.0448    0.1116 C   0  0
    2.8993   -0.2819    2.1676 N   0  5
    0.6364    0.1298    1.5505 N   0  0
    1.8171   -0.0859    1.8649 N   0  3
    0.8015    2.4065   -0.1327 O   0  0
   -0.1541   -2.2992    0.3103 O   0  0
   -2.2485    5.7164   -0.7296 H   0  0
    1.1993    6.5327    1.7207 H   0  0
   -4.2742   -4.1998    0.4791 H   0  0
   -1.1739   -5.8158    2.9960 H   0  0
   -1.4283    3.4215   -1.1170 H   0  0
    2.0168    4.2374    1.3316 H   0  0
   -2.6866   -2.5279   -0.4007 H   0  0
    0.4111   -4.1430    2.1142 H   0  0
   -1.7138    7.6934    1.6468 H   0  0
   -0.2419    8.3635    0.9012 H   0  0
   -1.6530    8.0295   -0.1011 H   0  0
   -3.7624   -7.0381    1.7136 H   0  0
   -3.5452   -6.4015    3.3625 H   0  0
   -4.8138   -5.7406    2.3324 H   0  0
   -1.0846    1.6930    0.2075 H   0  0
   -0.4276    1.3945   -1.4131 H   0  0
   -0.9679   -1.1333   -1.1577 H   0  0
   -1.6089   -0.8614    0.4831 H   0  0
    1.2713   -0.2043   -0.4073 H   0  0
  1  5  2  0
  1  9  1  0
  2  6  1  0
  2  9  2  0
  3  7  2  0
  3 10  1  0
  4  8  1  0
  4 10  2  0
  5 11  1  0
  6 11  2  0
  7 12  1  0
  8 12  2  0
  9 13  1  0
 10 14  1  0
 11 21  1  0
 12 22  1  0
 15 17  1  0
 15 21  1  0
 16 17  1  0
 16 22  1  0
 17 19  1  0
 18 20  2  0
 19 20  2  0
  1 23  1  0
  2 24  1  0
  3 25  1  0
  4 26  1  0
  5 27  1  0
  6 28  1  0
  7 29  1  0
  8 30  1  0
 13 31  1  0
 13 32  1  0
 13 33  1  0
 14 34  1  0
 14 35  1  0
 14 36  1  0
 15 37  1  0
 15 38  1  0
 16 39  1  0
 16 40  1  0
 17 41  1  0
M  CHG  2  18  -1  20   1
M  END
> <Name>
BR010611

$$$$
BR010612
  SciTegic05062102053D

 35 36  0  0  1  0            999 V2000
   -0.8933    5.5933   -0.7178 C   0  0
   -2.9802   -4.6157    0.4472 C   0  0
   -0.6041    6.2753    0.4641 C   0  0
   -2.8586   -5.1154    1.7437 C   0  0
   -0.4175    4.2960   -0.9088 C   0  0
   -2.0683   -3.6715   -0.0247 C   0  0
    0.1611    5.6601    1.4549 C   0  0
   -1.8253   -4.6708    2.5685 C   0  0
    0.3476    3.6808    0.0820 C   0  0
   -1.0350   -3.2269    0.8000 C   0  0
    0.6369    4.3628    1.2639 C   0  0
   -0.9134   -3.7266    2.0966 C   0  0
   -0.1849    1.4028   -0.3454 C   0  0
   -0.7007   -1.0508   -0.0992 C   0  0
    0.3384    0.0448    0.1116 C   0  0  3  0  0  0
    2.8993   -0.2819    2.1676 N   0  5
    0.6364    0.1298    1.5505 N   0  0
    1.8171   -0.0859    1.8649 N   0  3
    0.8015    2.4065   -0.1327 O   0  0
   -0.1541   -2.2992    0.3103 O   0  0
    1.5807    3.6265    2.5060 Cl  0  0
    0.3546   -3.1947    3.1383 Cl  0  0
   -1.4891    6.0724   -1.4893 H   0  0
   -3.7848   -4.9618   -0.1950 H   0  0
   -0.9746    7.2853    0.6126 H   0  0
   -3.5687   -5.8506    2.1109 H   0  0
   -0.6468    3.7708   -1.8321 H   0  0
   -2.1691   -3.2866   -1.0360 H   0  0
    0.3779    6.2048    2.3703 H   0  0
   -1.7442   -5.0699    3.5764 H   0  0
   -1.0846    1.6930    0.2075 H   0  0
   -0.4276    1.3945   -1.4131 H   0  0
   -0.9679   -1.1333   -1.1577 H   0  0
   -1.6089   -0.8614    0.4831 H   0  0
    1.2713   -0.2043   -0.4073 H   0  0
  1  3  2  0
  1  5  1  0
  2  4  1  0
  2  6  2  0
  3  7  1  0
  4  8  2  0
  5  9  2  0
  6 10  1  0
  7 11  2  0
  8 12  1  0
  9 11  1  0
  9 19  1  0
 10 12  2  0
 10 20  1  0
 11 21  1  0
 12 22  1  0
 13 15  1  0
 13 19  1  0
 14 15  1  0
 14 20  1  0
 15 17  1  0
 16 18  2  0
 17 18  2  0
  1 23  1  0
  2 24  1  0
  3 25  1  0
  4 26  1  0
  5 27  1  0
  6 28  1  0
  7 29  1  0
  8 30  1  0
 13 31  1  0
 13 32  1  0
 14 33  1  0
 14 34  1  0
 15 35  1  0
M  CHG  2  16  -1  18   1
M  END
> <Name>
BR010612

$$$$
BR010613
  SciTegic05062102053D

 35 36  0  0  1  0            999 V2000
   -1.3123    5.3990   -0.2776 C   0  0
   -3.2500   -4.1905    0.8429 C   0  0
   -0.8507    4.1009   -0.4953 C   0  0
   -2.3528   -3.2467    0.3433 C   0  0
   -0.5756    6.2772    0.5171 C   0  0
   -2.8294   -5.1146    1.7994 C   0  0
    1.0844    4.5590    0.8768 C   0  0
   -0.6143   -4.1510    1.7565 C   0  0
    0.3476    3.6808    0.0820 C   0  0
   -1.0350   -3.2269    0.8000 C   0  0
    0.6228    5.8572    1.0944 C   0  0
   -1.5116   -5.0949    2.2562 C   0  0
   -0.1849    1.4028   -0.3454 C   0  0
   -0.7007   -1.0508   -0.0992 C   0  0
    0.3384    0.0448    0.1116 C   0  0  3  0  0  0
    2.8993   -0.2819    2.1676 N   0  5
    0.6364    0.1298    1.5505 N   0  0
    1.8171   -0.0859    1.8649 N   0  3
    0.8015    2.4065   -0.1327 O   0  0
   -0.1541   -2.2992    0.3103 O   0  0
    1.5308    6.9415    2.0743 Cl  0  0
   -0.9942   -6.2352    3.4363 Cl  0  0
   -2.2452    5.7259   -0.7276 H   0  0
   -4.2761   -4.2054    0.4874 H   0  0
   -1.4290    3.4211   -1.1152 H   0  0
   -2.6860   -2.5294   -0.4018 H   0  0
   -0.9478    7.2857    0.6786 H   0  0
   -3.5394   -5.8449    2.1794 H   0  0
    2.0175    4.2235    1.3236 H   0  0
    0.4149   -4.1292    2.1070 H   0  0
   -1.0846    1.6930    0.2075 H   0  0
   -0.4276    1.3945   -1.4131 H   0  0
   -0.9679   -1.1333   -1.1577 H   0  0
   -1.6089   -0.8614    0.4831 H   0  0
    1.2713   -0.2043   -0.4073 H   0  0
  1  3  1  0
  1  5  2  0
  2  4  2  0
  2  6  1  0
  3  9  2  0
  4 10  1  0
  5 11  1  0
  6 12  2  0
  7  9  1  0
  7 11  2  0
  8 10  2  0
  8 12  1  0
  9 19  1  0
 10 20  1  0
 11 21  1  0
 12 22  1  0
 13 15  1  0
 13 19  1  0
 14 15  1  0
 14 20  1  0
 15 17  1  0
 16 18  2  0
 17 18  2  0
  1 23  1  0
  2 24  1  0
  3 25  1  0
  4 26  1  0
  5 27  1  0
  6 28  1  0
  7 29  1  0
  8 30  1  0
 13 31  1  0
 13 32  1  0
 14 33  1  0
 14 34  1  0
 15 35  1  0
M  CHG  2  16  -1  18   1
M  END
> <Name>
BR010613

$$$$
BR010614
  SciTegic05062102053D

 35 36  0  0  0  0            999 V2000
   -0.8508    4.1010   -0.4952 C   0  0
    1.0835    4.5583    0.8783 C   0  0
   -2.3528   -3.2468    0.3434 C   0  0
   -0.6137   -4.1521    1.7551 C   0  0
   -1.3132    5.3986   -0.2759 C   0  0
    0.6211    5.8558    1.0976 C   0  0
   -3.2494   -4.1920    0.8417 C   0  0
   -1.5103   -5.0973    2.2534 C   0  0
    0.3476    3.6808    0.0820 C   0  0
   -1.0350   -3.2269    0.8000 C   0  0
   -0.5773    6.2760    0.5205 C   0  0
   -2.8282   -5.1172    1.7967 C   0  0
   -0.1849    1.4028   -0.3454 C   0  0
   -0.7007   -1.0508   -0.0992 C   0  0
    0.3384    0.0448    0.1116 C   0  0
    2.8993   -0.2819    2.1676 N   0  5
    0.6364    0.1298    1.5505 N   0  0
    1.8171   -0.0859    1.8649 N   0  3
    0.8015    2.4065   -0.1327 O   0  0
   -0.1541   -2.2992    0.3103 O   0  0
   -1.1484    7.8764    0.7923 Cl  0  0
   -3.9338   -6.2843    2.4107 Cl  0  0
   -1.4290    3.4226   -1.1161 H   0  0
    2.0174    4.2366    1.3309 H   0  0
   -2.6873   -2.5293   -0.4007 H   0  0
    0.4116   -4.1419    2.1143 H   0  0
   -2.2494    5.7123   -0.7312 H   0  0
    1.2044    6.5287    1.7212 H   0  0
   -4.2733   -4.1966    0.4761 H   0  0
   -1.1681   -5.8130    2.9967 H   0  0
   -1.0846    1.6930    0.2075 H   0  0
   -0.4276    1.3945   -1.4131 H   0  0
   -0.9679   -1.1333   -1.1577 H   0  0
   -1.6089   -0.8614    0.4831 H   0  0
    1.2713   -0.2043   -0.4073 H   0  0
  1  5  2  0
  1  9  1  0
  2  6  1  0
  2  9  2  0
  3  7  1  0
  3 10  2  0
  4  8  2  0
  4 10  1  0
  5 11  1  0
  6 11  2  0
  7 12  2  0
  8 12  1  0
  9 19  1  0
 10 20  1  0
 11 21  1  0
 12 22  1  0
 13 15  1  0
 13 19  1  0
 14 15  1  0
 14 20  1  0
 15 17  1  0
 16 18  2  0
 17 18  2  0
  1 23  1  0
  2 24  1  0
  3 25  1  0
  4 26  1  0
  5 27  1  0
  6 28  1  0
  7 29  1  0
  8 30  1  0
 13 31  1  0
 13 32  1  0
 14 33  1  0
 14 34  1  0
 15 35  1  0
M  CHG  2  16  -1  18   1
M  END
> <Name>
BR010614

$$$$
BR010615
  SciTegic05062102053D

 35 36  0  0  0  0            999 V2000
   -0.5778    6.2755    0.5226 C   0  0
   -2.8271   -5.1189    1.7956 C   0  0
   -1.3134    5.3987   -0.2747 C   0  0
    0.6205    5.8550    1.0996 C   0  0
   -3.2490   -4.1931    0.8414 C   0  0
   -1.5092   -5.0987    2.2521 C   0  0
   -0.8507    4.1014   -0.4950 C   0  0
    1.0832    4.5577    0.8793 C   0  0
   -2.3529   -3.2471    0.3436 C   0  0
   -0.6131   -4.1527    1.7543 C   0  0
    0.3476    3.6808    0.0820 C   0  0
   -1.0350   -3.2269    0.8000 C   0  0
   -0.1849    1.4028   -0.3454 C   0  0
   -0.7007   -1.0508   -0.0992 C   0  0
    0.3384    0.0448    0.1116 C   0  0
    2.8993   -0.2819    2.1676 N   0  5
    0.6364    0.1298    1.5505 N   0  0
    1.8171   -0.0859    1.8649 N   0  3
    0.8015    2.4065   -0.1327 O   0  0
   -0.1541   -2.2992    0.3103 O   0  0
   -0.9375    7.2858    0.6939 H   0  0
   -3.5247   -5.8552    2.1838 H   0  0
   -2.2466    5.7259   -0.7240 H   0  0
    1.1928    6.5384    1.7203 H   0  0
   -4.2752   -4.2088    0.4857 H   0  0
   -1.1815   -5.8199    2.9952 H   0  0
   -1.4292    3.4228   -1.1160 H   0  0
    2.0164    4.2350    1.3328 H   0  0
   -2.6874   -2.5296   -0.4007 H   0  0
    0.4128   -4.1429    2.1121 H   0  0
   -1.0846    1.6930    0.2075 H   0  0
   -0.4276    1.3945   -1.4131 H   0  0
   -0.9679   -1.1333   -1.1577 H   0  0
   -1.6089   -0.8614    0.4831 H   0  0
    1.2713   -0.2043   -0.4073 H   0  0
  1  3  1  0
  1  4  2  0
  2  5  1  0
  2  6  2  0
  3  7  2  0
  4  8  1  0
  5  9  2  0
  6 10  1  0
  7 11  1  0
  8 11  2  0
  9 12  1  0
 10 12  2  0
 11 19  1  0
 12 20  1  0
 13 15  1  0
 13 19  1  0
 14 15  1  0
 14 20  1  0
 15 17  1  0
 16 18  2  0
 17 18  2  0
  1 21  1  0
  2 22  1  0
  3 23  1  0
  4 24  1  0
  5 25  1  0
  6 26  1  0
  7 27  1  0
  8 28  1  0
  9 29  1  0
 10 30  1  0
 13 31  1  0
 13 32  1  0
 14 33  1  0
 14 34  1  0
 15 35  1  0
M  CHG  2  16  -1  18   1
M  END
> <Name>
BR010615

$$$$
BR010616
  SciTegic05062102053D

 47 50  0  0  0  0            999 V2000
   -0.0065   -7.0392   -6.5260 C   0  0
    5.2397  -11.4248   -7.9974 C   0  0
    0.4232   -8.3402   -6.2820 C   0  0
    5.0333  -10.1065   -8.3928 C   0  0
    0.5284   -5.9782   -5.7949 C   0  0
    5.7741  -11.7011   -6.7386 C   0  0
    1.3895   -8.5852   -5.3059 C   0  0
    5.3606   -9.0594   -7.5309 C   0  0
    2.0510   -5.1504   -4.0632 C   0  0
    6.6481  -10.9192   -4.5874 C   0  0
    3.0172   -5.3953   -3.0870 C   0  0
    6.9754   -9.8720   -3.7256 C   0  0
    2.9121   -7.7574   -3.5741 C   0  0
    6.2347   -8.2774   -5.3798 C   0  0
    1.5018   -6.2063   -4.8086 C   0  0
    6.1093  -10.6596   -5.8581 C   0  0
    1.9387   -7.5293   -4.5604 C   0  0
    5.8994   -9.3189   -6.2602 C   0  0
    3.4469   -6.6964   -2.8430 C   0  0
    6.7690   -8.5537   -4.1210 C   0  0
    5.3444   -5.9007   -1.6503 C   0  0
    6.9922   -7.7925   -1.8790 C   0  0
    6.6529   -6.5000   -1.1449 C   0  0
    8.4709   -6.6690    1.6042 N   0  5
    6.4930   -6.8080    0.2854 N   0  0
    7.5274   -6.7337    0.9665 N   0  3
    4.3898   -6.9336   -1.8905 O   0  0
    7.0906   -7.5267   -3.2734 O   0  0
   -0.7592   -6.8494   -7.2856 H   0  0
    4.9853  -12.2394   -8.6691 H   0  0
    0.0068   -9.1661   -6.8516 H   0  0
    4.6170   -9.8918   -9.3728 H   0  0
    0.1779   -4.9691   -6.0016 H   0  0
    5.9276  -12.7388   -6.4499 H   0  0
    1.7099   -9.6104   -5.1317 H   0  0
    5.1913   -8.0366   -7.8614 H   0  0
    1.7294   -4.1254   -4.2366 H   0  0
    6.8185  -11.9421   -4.2577 H   0  0
    3.4300   -4.5652   -2.5202 H   0  0
    7.3918  -10.0929   -2.7465 H   0  0
    3.2592   -8.7690   -3.3710 H   0  0
    6.0793   -7.2408   -5.6736 H   0  0
    5.4894   -5.3524   -2.5872 H   0  0
    4.9139   -5.2131   -0.9149 H   0  0
    6.2041   -8.5386   -1.7351 H   0  0
    7.9449   -8.2112   -1.5370 H   0  0
    7.4712   -5.7769   -1.2402 H   0  0
  1  3  1  0
  1  5  2  0
  2  4  1  0
  2  6  2  0
  3  7  2  0
  4  8  2  0
  5 15  1  0
  6 16  1  0
  7 17  1  0
  8 18  1  0
  9 11  1  0
  9 15  2  0
 10 12  1  0
 10 16  2  0
 11 19  2  0
 12 20  2  0
 13 17  2  0
 13 19  1  0
 14 18  2  0
 14 20  1  0
 15 17  1  0
 16 18  1  0
 19 27  1  0
 20 28  1  0
 21 23  1  0
 21 27  1  0
 22 23  1  0
 22 28  1  0
 23 25  1  0
 24 26  2  0
 25 26  2  0
  1 29  1  0
  2 30  1  0
  3 31  1  0
  4 32  1  0
  5 33  1  0
  6 34  1  0
  7 35  1  0
  8 36  1  0
  9 37  1  0
 10 38  1  0
 11 39  1  0
 12 40  1  0
 13 41  1  0
 14 42  1  0
 21 43  1  0
 21 44  1  0
 22 45  1  0
 22 46  1  0
 23 47  1  0
M  CHG  2  24  -1  26   1
M  END
> <Name>
BR010616

$$$$
BR010617
  SciTegic05062102053D

 53 55  0  0  1  0            999 V2000
    4.9176    4.3439   -0.6970 C   0  0
    4.8764    4.0966    0.6751 C   0  0
    3.9863    3.7413   -1.5427 C   0  0
   -1.7112   -0.9999   -3.1128 C   0  0
    5.2138   -4.4799    2.7951 C   0  0
    3.9038    3.2465    1.2015 C   0  0
    3.0137    2.8913   -1.0163 C   0  0
   -0.9522   -0.9839   -4.2830 C   0  0
    6.4427   -3.9403    3.1749 C   0  0
   -1.0869   -1.1827   -1.8789 C   0  0
    4.0828   -3.6655    2.7361 C   0  0
    1.0555   -1.3339   -2.9854 C   0  0
    5.4097   -1.7720    3.4368 C   0  0
    2.9725    2.6438    0.3558 C   0  0
    0.4312   -1.1509   -4.2193 C   0  0
    6.5407   -2.5864    3.4958 C   0  0
    0.2965   -1.3498   -1.8152 C   0  0
    4.1808   -2.3116    3.0570 C   0  0
    1.9263    1.7291    0.9214 C   0  0
    0.2932   -0.9161    0.5231 C   0  0
    2.0750   -1.8664    2.0455 C   0  0
    1.3499   -0.6110    1.5772 C   0  0  1  0  0  0
    1.2039   -1.1341   -5.4106 N   0  3
    7.7920   -2.0370    3.8818 N   0  3
    2.3605    0.3116    0.9740 N   0  3
    0.6225   -0.9676   -6.5100 O   0  5
    8.7969   -2.7869    3.9278 O   0  5
    2.4468   -1.2858   -5.3310 O   0  0
    7.8583   -0.8168    4.1660 O   0  0
    0.9091   -1.5294   -0.6030 O   0  0
    3.0696   -1.5123    2.9989 O   0  0
    5.6741    5.0070   -1.1066 H   0  0
    5.6008    4.5665    1.3338 H   0  0
    4.0174    3.9346   -2.6109 H   0  0
   -2.7884   -0.8704   -3.1624 H   0  0
    5.1373   -5.5342    2.5458 H   0  0
    3.8794    3.0593    2.2718 H   0  0
    2.2923    2.4261   -1.6828 H   0  0
   -1.4514   -0.8403   -5.2384 H   0  0
    7.3166   -4.5862    3.2166 H   0  0
   -1.6832   -1.1940   -0.9708 H   0  0
    3.1283   -4.0914    2.4394 H   0  0
    2.1338   -1.4657   -2.9283 H   0  0
    5.4785   -0.7156    3.6866 H   0  0
    1.6617    2.0152    1.9450 H   0  0
    1.0110    1.7557    0.3203 H   0  0
   -0.2235   -0.0089    0.1915 H   0  0
   -0.4500   -1.6161    0.9188 H   0  0
    2.5783   -2.3528    1.2035 H   0  0
    1.3874   -2.5854    2.5040 H   0  0
    0.9255   -0.0554    2.4205 H   0  0
    2.5795   -0.0158    0.0261 H   0  0
    3.2328    0.2395    1.5103 H   0  0
  1  2  1  0
  1  3  2  0
  2  6  2  0
  3  7  1  0
  4  8  1  0
  4 10  2  0
  5  9  2  0
  5 11  1  0
  6 14  1  0
  7 14  2  0
  8 15  2  0
  9 16  1  0
 10 17  1  0
 11 18  2  0
 12 15  1  0
 12 17  2  0
 13 16  2  0
 13 18  1  0
 14 19  1  0
 15 23  1  0
 16 24  1  0
 17 30  1  0
 18 31  1  0
 19 25  1  0
 20 22  1  0
 20 30  1  0
 21 22  1  0
 21 31  1  0
 22 25  1  0
 23 26  1  0
 23 28  2  0
 24 27  1  0
 24 29  2  0
  1 32  1  0
  2 33  1  0
  3 34  1  0
  4 35  1  0
  5 36  1  0
  6 37  1  0
  7 38  1  0
  8 39  1  0
  9 40  1  0
 10 41  1  0
 11 42  1  0
 12 43  1  0
 13 44  1  0
 19 45  1  0
 19 46  1  0
 20 47  1  0
 20 48  1  0
 21 49  1  0
 21 50  1  0
 22 51  1  0
 25 52  1  0
 25 53  1  0
M  CHG  5  23   1  24   1  25   1  26  -1  27  -1
M  END
> <Name>
BR010617

$$$$
BR010618
  SciTegic05062102053D

 53 55  0  0  0  0            999 V2000
    3.6405   -5.5352    5.1770 C   0  0
    2.3658   -5.0296    5.4315 C   0  0
    4.5284   -4.8173    4.3757 C   0  0
    1.9788   -3.8060    4.8848 C   0  0
    4.1415   -3.5938    3.8290 C   0  0
   -2.4016   -3.0177   -1.8370 C   0  0
   -2.9384   -4.3707    0.0913 C   0  0
    6.5087    0.8022   -0.0886 C   0  0
    6.6796   -1.5230   -0.7220 C   0  0
   -1.6531   -2.1624   -1.0285 C   0  0
   -2.1898   -3.5154    0.8999 C   0  0
    5.1321    0.6549    0.0808 C   0  0
    5.3030   -1.6704   -0.5525 C   0  0
    2.8667   -3.0881    4.0836 C   0  0
   -3.0444   -4.1219   -1.2770 C   0  0
    7.2825   -0.2867   -0.4901 C   0  0
   -1.5472   -2.4112    0.3399 C   0  0
    4.5292   -0.5814   -0.1511 C   0  0
    2.4510   -1.7721    3.4950 C   0  0
    0.2932   -0.9161    0.5231 C   0  0
    2.5589    0.1059    0.9896 C   0  0
    1.3499   -0.6110    1.5772 C   0  0
   -3.8066   -4.9926   -2.0998 N   0  3
    8.6839   -0.1370   -0.6629 N   0  3
    1.8138   -1.9068    2.1622 N   0  3
   -3.8894   -4.7510   -3.3283 O   0  5
    9.2066    0.9836   -0.4492 O   0  5
   -4.3764   -5.9802   -1.5759 O   0  0
    9.3614   -1.1294   -1.0242 O   0  0
   -0.8118   -1.5711    1.1340 O   0  0
    3.1770   -0.7261    0.0155 O   0  0
    3.9421   -6.4873    5.6038 H   0  0
    1.6746   -5.5879    6.0563 H   0  0
    5.5214   -5.2102    4.1782 H   0  0
    0.9835   -3.4199    5.0884 H   0  0
    4.8399   -3.0415    3.2059 H   0  0
   -2.4758   -2.8125   -2.9021 H   0  0
   -3.4346   -5.2273    0.5410 H   0  0
    6.9661    1.7712    0.0958 H   0  0
    7.2707   -2.3800   -1.0357 H   0  0
   -1.1544   -1.3040   -1.4704 H   0  0
   -2.1113   -3.7142    1.9652 H   0  0
    4.5346    1.5067    0.3941 H   0  0
    4.8390   -2.6359   -0.7351 H   0  0
    1.7276   -1.2611    4.1394 H   0  0
    3.3117   -1.1069    3.3664 H   0  0
    0.6870   -1.5576   -0.2728 H   0  0
   -0.0761    0.0112    0.0731 H   0  0
    3.2982    0.3104    1.7710 H   0  0
    2.2789    1.0538    0.5171 H   0  0
    0.9255   -0.0554    2.4205 H   0  0
    2.4735   -2.3446    1.5089 H   0  0
    1.0113   -2.5436    2.2282 H   0  0
  1  2  1  0
  1  3  2  0
  2  4  2  0
  3  5  1  0
  4 14  1  0
  5 14  2  0
  6 10  1  0
  6 15  2  0
  7 11  2  0
  7 15  1  0
  8 12  1  0
  8 16  2  0
  9 13  2  0
  9 16  1  0
 10 17  2  0
 11 17  1  0
 12 18  2  0
 13 18  1  0
 14 19  1  0
 15 23  1  0
 16 24  1  0
 17 30  1  0
 18 31  1  0
 19 25  1  0
 20 22  1  0
 20 30  1  0
 21 22  1  0
 21 31  1  0
 22 25  1  0
 23 26  1  0
 23 28  2  0
 24 27  1  0
 24 29  2  0
  1 32  1  0
  2 33  1  0
  3 34  1  0
  4 35  1  0
  5 36  1  0
  6 37  1  0
  7 38  1  0
  8 39  1  0
  9 40  1  0
 10 41  1  0
 11 42  1  0
 12 43  1  0
 13 44  1  0
 19 45  1  0
 19 46  1  0
 20 47  1  0
 20 48  1  0
 21 49  1  0
 21 50  1  0
 22 51  1  0
 25 52  1  0
 25 53  1  0
M  CHG  5  23   1  24   1  25   1  26  -1  27  -1
M  END
> <Name>
BR010618

$$$$
BR010619
  SciTegic05062102053D

 55 57  0  0  0  0            999 V2000
    3.6405   -5.5352    5.1770 C   0  0
    2.3658   -5.0296    5.4315 C   0  0
    4.5284   -4.8173    4.3757 C   0  0
    1.9788   -3.8060    4.8848 C   0  0
    4.1415   -3.5938    3.8290 C   0  0
   -2.4005   -3.0181   -1.8373 C   0  0
   -2.9364   -4.3720    0.0906 C   0  0
    6.5087    0.8021   -0.0873 C   0  0
    6.6801   -1.5234   -0.7196 C   0  0
   -1.6530   -2.1622   -1.0285 C   0  0
   -2.1889   -3.5161    0.8995 C   0  0
    5.1319    0.6549    0.0809 C   0  0
    5.3033   -1.6706   -0.5513 C   0  0
   -3.0423   -4.1230   -1.2777 C   0  0
    7.2828   -0.2870   -0.4876 C   0  0
    2.8667   -3.0881    4.0836 C   0  0
   -1.5472   -2.4112    0.3399 C   0  0
    4.5292   -0.5814   -0.1511 C   0  0
   -3.8410   -5.0386   -2.1424 C   0  0
    8.7549   -0.1300   -0.6669 C   0  0
    2.4510   -1.7721    3.4950 C   0  0
    0.2932   -0.9161    0.5231 C   0  0
    2.5589    0.1059    0.9896 C   0  0
    1.3499   -0.6110    1.5772 C   0  0
    1.8138   -1.9068    2.1622 N   0  3
   -0.8118   -1.5711    1.1340 O   0  0
    3.1770   -0.7261    0.0155 O   0  0
    3.9421   -6.4873    5.6038 H   0  0
    1.6746   -5.5879    6.0563 H   0  0
    5.5214   -5.2102    4.1782 H   0  0
    0.9835   -3.4199    5.0884 H   0  0
    4.8399   -3.0415    3.2059 H   0  0
   -2.4776   -2.8165   -2.9023 H   0  0
   -3.4332   -5.2305    0.5353 H   0  0
    6.9698    1.7690    0.0955 H   0  0
    7.2755   -2.3775   -1.0318 H   0  0
   -1.1551   -1.3032   -1.4703 H   0  0
   -2.1100   -3.7156    1.9645 H   0  0
    4.5342    1.5072    0.3932 H   0  0
    4.8399   -2.6362   -0.7332 H   0  0
   -3.2079   -5.8450   -2.5323 H   0  0
   -4.6731   -5.4882   -1.5852 H   0  0
   -4.2818   -4.5007   -2.9920 H   0  0
    9.2795   -0.3468    0.2717 H   0  0
    9.1364   -0.8064   -1.4428 H   0  0
    9.0115    0.8903   -0.9811 H   0  0
    1.7276   -1.2611    4.1394 H   0  0
    3.3117   -1.1069    3.3664 H   0  0
    0.6870   -1.5576   -0.2728 H   0  0
   -0.0761    0.0112    0.0731 H   0  0
    3.2982    0.3104    1.7710 H   0  0
    2.2789    1.0538    0.5171 H   0  0
    0.9255   -0.0554    2.4205 H   0  0
    2.4735   -2.3446    1.5089 H   0  0
    1.0113   -2.5436    2.2282 H   0  0
  1  2  1  0
  1  3  2  0
  2  4  2  0
  3  5  1  0
  4 16  1  0
  5 16  2  0
  6 10  1  0
  6 14  2  0
  7 11  2  0
  7 14  1  0
  8 12  1  0
  8 15  2  0
  9 13  2  0
  9 15  1  0
 10 17  2  0
 11 17  1  0
 12 18  2  0
 13 18  1  0
 14 19  1  0
 15 20  1  0
 16 21  1  0
 17 26  1  0
 18 27  1  0
 21 25  1  0
 22 24  1  0
 22 26  1  0
 23 24  1  0
 23 27  1  0
 24 25  1  0
  1 28  1  0
  2 29  1  0
  3 30  1  0
  4 31  1  0
  5 32  1  0
  6 33  1  0
  7 34  1  0
  8 35  1  0
  9 36  1  0
 10 37  1  0
 11 38  1  0
 12 39  1  0
 13 40  1  0
 19 41  1  0
 19 42  1  0
 19 43  1  0
 20 44  1  0
 20 45  1  0
 20 46  1  0
 21 47  1  0
 21 48  1  0
 22 49  1  0
 22 50  1  0
 23 51  1  0
 23 52  1  0
 24 53  1  0
 25 54  1  0
 25 55  1  0
M  CHG  1  25   1
M  END
> <Name>
BR010619

$$$$
BR010620
  SciTegic05062102053D

 49 51  0  0  0  0            999 V2000
    3.6405   -5.5352    5.1770 C   0  0
    2.3658   -5.0296    5.4315 C   0  0
    4.5284   -4.8173    4.3757 C   0  0
    1.9788   -3.8060    4.8848 C   0  0
    4.1415   -3.5938    3.8290 C   0  0
   -1.6533   -2.1626   -1.0285 C   0  0
   -2.1893   -3.5156    0.9000 C   0  0
    5.1323    0.6548    0.0808 C   0  0
    5.3028   -1.6706   -0.5520 C   0  0
   -2.4014   -3.0184   -1.8369 C   0  0
   -2.9375   -4.3714    0.0916 C   0  0
    6.5091    0.8017   -0.0882 C   0  0
    6.6796   -1.5237   -0.7210 C   0  0
    2.8667   -3.0881    4.0836 C   0  0
   -1.5472   -2.4112    0.3399 C   0  0
    4.5292   -0.5814   -0.1511 C   0  0
   -3.0435   -4.1228   -1.2769 C   0  0
    7.2827   -0.2875   -0.4891 C   0  0
    2.4510   -1.7721    3.4950 C   0  0
    0.2932   -0.9161    0.5231 C   0  0
    2.5589    0.1059    0.9896 C   0  0
    1.3499   -0.6110    1.5772 C   0  0
    1.8138   -1.9068    2.1622 N   0  3
   -0.8118   -1.5711    1.1340 O   0  0
    3.1770   -0.7261    0.0155 O   0  0
   -3.9655   -5.1795   -2.2742 Cl  0  0
    8.9815   -0.1068   -0.6963 Cl  0  0
    3.9421   -6.4873    5.6038 H   0  0
    1.6746   -5.5879    6.0563 H   0  0
    5.5214   -5.2102    4.1782 H   0  0
    0.9835   -3.4199    5.0884 H   0  0
    4.8399   -3.0415    3.2059 H   0  0
   -1.1553   -1.3045   -1.4712 H   0  0
   -2.1100   -3.7146    1.9651 H   0  0
    4.5357    1.5071    0.3936 H   0  0
    4.8388   -2.6361   -0.7337 H   0  0
   -2.4747   -2.8131   -2.9021 H   0  0
   -3.4318   -5.2288    0.5414 H   0  0
    6.9660    1.7707    0.0970 H   0  0
    7.2704   -2.3814   -1.0329 H   0  0
    1.7276   -1.2611    4.1394 H   0  0
    3.3117   -1.1069    3.3664 H   0  0
    0.6870   -1.5576   -0.2728 H   0  0
   -0.0761    0.0112    0.0731 H   0  0
    3.2982    0.3104    1.7710 H   0  0
    2.2789    1.0538    0.5171 H   0  0
    0.9255   -0.0554    2.4205 H   0  0
    2.4735   -2.3446    1.5089 H   0  0
    1.0113   -2.5436    2.2282 H   0  0
  1  2  1  0
  1  3  2  0
  2  4  2  0
  3  5  1  0
  4 14  1  0
  5 14  2  0
  6 10  1  0
  6 15  2  0
  7 11  2  0
  7 15  1  0
  8 12  2  0
  8 16  1  0
  9 13  1  0
  9 16  2  0
 10 17  2  0
 11 17  1  0
 12 18  1  0
 13 18  2  0
 14 19  1  0
 15 24  1  0
 16 25  1  0
 17 26  1  0
 18 27  1  0
 19 23  1  0
 20 22  1  0
 20 24  1  0
 21 22  1  0
 21 25  1  0
 22 23  1  0
  1 28  1  0
  2 29  1  0
  3 30  1  0
  4 31  1  0
  5 32  1  0
  6 33  1  0
  7 34  1  0
  8 35  1  0
  9 36  1  0
 10 37  1  0
 11 38  1  0
 12 39  1  0
 13 40  1  0
 19 41  1  0
 19 42  1  0
 20 43  1  0
 20 44  1  0
 21 45  1  0
 21 46  1  0
 22 47  1  0
 23 48  1  0
 23 49  1  0
M  CHG  1  23   1
M  END
> <Name>
BR010620

$$$$
BR010621
  SciTegic05062102053D

 51 53  0  0  1  0            999 V2000
   -3.5606    2.3754   -6.9509 C   0  0
   -6.9617   -1.3058   -1.4430 C   0  0
   -4.9484    2.3595   -7.0899 C   0  0
   -7.4964   -1.7306   -2.6592 C   0  0
   -2.9852    2.2649   -5.6850 C   0  0
   -5.5976   -1.0342   -1.3376 C   0  0
   -5.1854    2.1228   -4.6972 C   0  0
   -5.3028   -1.6123   -3.6648 C   0  0
   -5.7608    2.2332   -5.9631 C   0  0
   -6.6669   -1.8838   -3.7701 C   0  0
   -3.7976    2.1387   -4.5582 C   0  0
   -4.7681   -1.1874   -2.4485 C   0  0
   -0.4276   -0.9561   -0.6656 C   0  0
    0.5859    0.3016   -2.5557 C   0  0
    0.6393   -2.0157   -0.8830 C   0  0
    1.6009   -0.8227   -2.6751 C   0  0
   -1.9524    1.4123   -3.2454 C   0  0
   -3.0443    0.0715   -1.4000 C   0  0
   -1.7745    0.7642   -1.8782 C   0  0  1  0  0  0
   -7.1737    2.2165   -6.1048 N   0  3
   -7.2115   -2.3158   -5.0085 N   0  3
   -0.6909   -0.2699   -1.9853 N   0  3
   -7.6708    2.3166   -7.2525 O   0  5
   -8.4412   -2.5541   -5.0817 O   0  5
   -7.8862    2.1017   -5.0784 O   0  0
   -6.4479   -2.4468   -5.9955 O   0  0
    1.8326   -1.4261   -1.4013 O   0  0
   -3.2317    2.0302   -3.3152 O   0  0
   -3.4284   -0.9205   -2.3444 O   0  0
   -2.9280    2.4743   -7.8281 H   0  0
   -7.6074   -1.1870   -0.5778 H   0  0
   -5.3841    2.4463   -8.0825 H   0  0
   -8.5616   -1.9387   -2.7278 H   0  0
   -1.9035    2.2776   -5.5829 H   0  0
   -5.1868   -0.7033   -0.3877 H   0  0
   -5.8128    2.0250   -3.8140 H   0  0
   -4.6498   -1.7305   -4.5267 H   0  0
   -1.3679   -1.4000   -0.3249 H   0  0
   -0.0937   -0.1853    0.0376 H   0  0
    0.9259    1.0811   -1.8652 H   0  0
    0.3522    0.7344   -3.5330 H   0  0
    0.8906   -2.4887    0.0715 H   0  0
    0.2946   -2.8049   -1.5619 H   0  0
    1.2760   -1.5881   -3.3899 H   0  0
    2.5556   -0.4229   -3.0310 H   0  0
   -1.8702    0.6798   -4.0558 H   0  0
   -1.1976    2.1902   -3.4003 H   0  0
   -3.8652    0.7919   -1.3206 H   0  0
   -2.9036   -0.4063   -0.4244 H   0  0
   -1.4081    1.4841   -1.1384 H   0  0
   -1.0304   -0.9850   -2.6436 H   0  0
  1  3  1  0
  1  5  2  0
  2  4  2  0
  2  6  1  0
  3  9  2  0
  4 10  1  0
  5 11  1  0
  6 12  2  0
  7  9  1  0
  7 11  2  0
  8 10  2  0
  8 12  1  0
  9 20  1  0
 10 21  1  0
 11 28  1  0
 12 29  1  0
 13 15  1  0
 13 22  1  0
 14 16  1  0
 14 22  1  0
 15 27  1  0
 16 27  1  0
 17 19  1  0
 17 28  1  0
 18 19  1  0
 18 29  1  0
 19 22  1  0
 20 23  1  0
 20 25  2  0
 21 24  1  0
 21 26  2  0
  1 30  1  0
  2 31  1  0
  3 32  1  0
  4 33  1  0
  5 34  1  0
  6 35  1  0
  7 36  1  0
  8 37  1  0
 13 38  1  0
 13 39  1  0
 14 40  1  0
 14 41  1  0
 15 42  1  0
 15 43  1  0
 16 44  1  0
 16 45  1  0
 17 46  1  0
 17 47  1  0
 18 48  1  0
 18 49  1  0
 19 50  1  0
 22 51  1  0
M  CHG  5  20   1  21   1  22   1  23  -1  24  -1
M  END
> <Name>
BR010621

$$$$
BR010622
  SciTegic05062102053D

 51 53  0  0  0  0            999 V2000
   -5.4212   -2.1307   -5.0157 C   0  0
   -4.6651   -4.0280   -3.7251 C   0  0
   -1.1081    5.7464   -4.3520 C   0  0
   -3.3534    6.1666   -3.5652 C   0  0
   -4.7785   -1.2696   -4.1263 C   0  0
   -4.0223   -3.1669   -2.8358 C   0  0
   -1.0333    4.6177   -3.5359 C   0  0
   -3.2787    5.0379   -2.7491 C   0  0
   -5.3646   -3.5099   -4.8151 C   0  0
   -2.2682    6.5209   -4.3667 C   0  0
   -4.0790   -1.7877   -3.0364 C   0  0
   -2.1186    4.2634   -2.7344 C   0  0
    0.3063   -0.1675   -0.8553 C   0  0
    0.0093   -0.2230   -3.3232 C   0  0
    1.3280   -1.2801   -1.0178 C   0  0
    1.0468   -1.3325   -3.3583 C   0  0
   -2.9693    0.2878   -2.6945 C   0  0
   -1.2206    2.0887   -2.3880 C   0  0
   -1.7745    0.7642   -1.8782 C   0  0
   -6.0190   -4.3867   -5.7202 N   0  3
   -2.3445    7.6700   -5.1972 N   0  3
   -0.6909   -0.2699   -1.9853 N   0  3
   -6.6429   -3.9004   -6.6942 O   0  5
   -1.3571    7.9714   -5.9105 O   0  5
   -5.9551   -5.6240   -5.5214 O   0  0
   -3.3974    8.3525   -5.1955 O   0  0
    1.9781   -1.1819   -2.2858 O   0  0
   -3.4476   -0.9418   -2.1629 O   0  0
   -2.0452    3.1547   -1.9329 O   0  0
   -5.9627   -1.7138   -5.8613 H   0  0
   -4.6133   -5.1009   -3.5566 H   0  0
   -0.2552    6.0112   -4.9721 H   0  0
   -4.2635    6.7616   -3.5665 H   0  0
   -4.8259   -0.1961   -4.2880 H   0  0
   -3.4793   -3.5765   -1.9883 H   0  0
   -0.1272    4.0181   -3.5290 H   0  0
   -4.1273    4.7672   -2.1267 H   0  0
   -0.2428   -0.2636    0.0863 H   0  0
    0.7720    0.8216   -0.9250 H   0  0
    0.4724    0.7660   -3.4092 H   0  0
   -0.7470   -0.3583   -4.1022 H   0  0
    2.0963   -1.1927   -0.2434 H   0  0
    0.8683   -2.2707   -0.9164 H   0  0
    0.5820   -2.3242   -3.3039 H   0  0
    1.6098   -1.2829   -4.2956 H   0  0
   -2.7079    0.1383   -3.7478 H   0  0
   -3.7854    1.0155   -2.6374 H   0  0
   -1.2247    2.1079   -3.4828 H   0  0
   -0.1966    2.2617   -2.0396 H   0  0
   -2.0135    0.8144   -0.8104 H   0  0
   -1.1512   -1.1876   -1.9096 H   0  0
  1  5  1  0
  1  9  2  0
  2  6  2  0
  2  9  1  0
  3  7  1  0
  3 10  2  0
  4  8  2  0
  4 10  1  0
  5 11  2  0
  6 11  1  0
  7 12  2  0
  8 12  1  0
  9 20  1  0
 10 21  1  0
 11 28  1  0
 12 29  1  0
 13 15  1  0
 13 22  1  0
 14 16  1  0
 14 22  1  0
 15 27  1  0
 16 27  1  0
 17 19  1  0
 17 28  1  0
 18 19  1  0
 18 29  1  0
 19 22  1  0
 20 23  1  0
 20 25  2  0
 21 24  1  0
 21 26  2  0
  1 30  1  0
  2 31  1  0
  3 32  1  0
  4 33  1  0
  5 34  1  0
  6 35  1  0
  7 36  1  0
  8 37  1  0
 13 38  1  0
 13 39  1  0
 14 40  1  0
 14 41  1  0
 15 42  1  0
 15 43  1  0
 16 44  1  0
 16 45  1  0
 17 46  1  0
 17 47  1  0
 18 48  1  0
 18 49  1  0
 19 50  1  0
 22 51  1  0
M  CHG  5  20   1  21   1  22   1  23  -1  24  -1
M  END
> <Name>
BR010622

$$$$
BR010623
  SciTegic05062102053D

 53 55  0  0  0  0            999 V2000
   -5.4202   -2.1304   -5.0164 C   0  0
   -4.6632   -4.0280   -3.7268 C   0  0
   -1.1083    5.7455   -4.3529 C   0  0
   -3.3541    6.1653   -3.5673 C   0  0
   -4.7784   -1.2694   -4.1262 C   0  0
   -4.0214   -3.1670   -2.8366 C   0  0
   -1.0333    4.6176   -3.5358 C   0  0
   -3.2791    5.0373   -2.7501 C   0  0
   -5.3626   -3.5097   -4.8166 C   0  0
   -2.2687    6.5194   -4.3686 C   0  0
   -4.0790   -1.7877   -3.0364 C   0  0
   -2.1186    4.2634   -2.7344 C   0  0
    0.3063   -0.1675   -0.8553 C   0  0
    0.0093   -0.2230   -3.3232 C   0  0
    1.3280   -1.2801   -1.0178 C   0  0
    1.0468   -1.3325   -3.3583 C   0  0
   -6.0482   -4.4304   -5.7686 C   0  0
   -2.3494    7.7250   -5.2426 C   0  0
   -2.9693    0.2878   -2.6945 C   0  0
   -1.2206    2.0887   -2.3880 C   0  0
   -1.7745    0.7642   -1.8782 C   0  0
   -0.6909   -0.2699   -1.9853 N   0  3
    1.9781   -1.1819   -2.2858 O   0  0
   -3.4476   -0.9418   -2.1629 O   0  0
   -2.0452    3.1547   -1.9329 O   0  0
   -5.9629   -1.7179   -5.8627 H   0  0
   -4.6131   -5.1014   -3.5632 H   0  0
   -0.2580    6.0140   -4.9739 H   0  0
   -4.2623    6.7625   -3.5730 H   0  0
   -4.8267   -0.1957   -4.2874 H   0  0
   -3.4780   -3.5769   -1.9899 H   0  0
   -0.1265    4.0185   -3.5282 H   0  0
   -4.1279    4.7666   -2.1286 H   0  0
   -0.2428   -0.2636    0.0863 H   0  0
    0.7720    0.8216   -0.9250 H   0  0
    0.4724    0.7660   -3.4092 H   0  0
   -0.7470   -0.3583   -4.1022 H   0  0
    2.0963   -1.1927   -0.2434 H   0  0
    0.8683   -2.2707   -0.9164 H   0  0
    0.5820   -2.3242   -3.3039 H   0  0
    1.6098   -1.2829   -4.2956 H   0  0
   -5.3694   -4.7132   -6.5825 H   0  0
   -6.3869   -5.3450   -5.2646 H   0  0
   -6.9389   -3.9606   -6.2059 H   0  0
   -2.7453    7.4557   -6.2295 H   0  0
   -3.0006    8.4924   -4.8042 H   0  0
   -1.3621    8.1860   -5.3778 H   0  0
   -2.7079    0.1383   -3.7478 H   0  0
   -3.7854    1.0155   -2.6374 H   0  0
   -1.2247    2.1079   -3.4828 H   0  0
   -0.1966    2.2617   -2.0396 H   0  0
   -2.0135    0.8144   -0.8104 H   0  0
   -1.1512   -1.1876   -1.9096 H   0  0
  1  5  1  0
  1  9  2  0
  2  6  2  0
  2  9  1  0
  3  7  1  0
  3 10  2  0
  4  8  2  0
  4 10  1  0
  5 11  2  0
  6 11  1  0
  7 12  2  0
  8 12  1  0
  9 17  1  0
 10 18  1  0
 11 24  1  0
 12 25  1  0
 13 15  1  0
 13 22  1  0
 14 16  1  0
 14 22  1  0
 15 23  1  0
 16 23  1  0
 19 21  1  0
 19 24  1  0
 20 21  1  0
 20 25  1  0
 21 22  1  0
  1 26  1  0
  2 27  1  0
  3 28  1  0
  4 29  1  0
  5 30  1  0
  6 31  1  0
  7 32  1  0
  8 33  1  0
 13 34  1  0
 13 35  1  0
 14 36  1  0
 14 37  1  0
 15 38  1  0
 15 39  1  0
 16 40  1  0
 16 41  1  0
 17 42  1  0
 17 43  1  0
 17 44  1  0
 18 45  1  0
 18 46  1  0
 18 47  1  0
 19 48  1  0
 19 49  1  0
 20 50  1  0
 20 51  1  0
 21 52  1  0
 22 53  1  0
M  CHG  1  22   1
M  END
> <Name>
BR010623

$$$$
BR010624
  SciTegic05062102053D

 47 49  0  0  0  0            999 V2000
   -4.7786   -1.2698   -4.1264 C   0  0
   -4.0217   -3.1669   -2.8359 C   0  0
   -1.0335    4.6180   -3.5360 C   0  0
   -3.2790    5.0374   -2.7493 C   0  0
   -5.4207   -2.1311   -5.0160 C   0  0
   -4.6639   -4.0282   -3.7254 C   0  0
   -1.1087    5.7463   -4.3525 C   0  0
   -3.3542    6.1658   -3.5658 C   0  0
   -4.0790   -1.7877   -3.0364 C   0  0
   -2.1186    4.2634   -2.7344 C   0  0
   -5.3634   -3.5103   -4.8155 C   0  0
   -2.2690    6.5203   -4.3674 C   0  0
    0.3063   -0.1675   -0.8553 C   0  0
    0.0093   -0.2230   -3.3232 C   0  0
    1.3280   -1.2801   -1.0178 C   0  0
    1.0468   -1.3325   -3.3583 C   0  0
   -2.9693    0.2878   -2.6945 C   0  0
   -1.2206    2.0887   -2.3880 C   0  0
   -1.7745    0.7642   -1.8782 C   0  0
   -0.6909   -0.2699   -1.9853 N   0  3
    1.9781   -1.1819   -2.2858 O   0  0
   -3.4476   -0.9418   -2.1629 O   0  0
   -2.0452    3.1547   -1.9329 O   0  0
   -6.1545   -4.5732   -5.9136 Cl  0  0
   -2.3626    7.9117   -5.3757 Cl  0  0
   -4.8267   -0.1967   -4.2886 H   0  0
   -3.4780   -3.5762   -1.9889 H   0  0
   -0.1270    4.0192   -3.5295 H   0  0
   -4.1276    4.7661   -2.1275 H   0  0
   -5.9615   -1.7138   -5.8618 H   0  0
   -4.6102   -5.1009   -3.5574 H   0  0
   -0.2557    6.0103   -4.9729 H   0  0
   -4.2651    6.7593   -3.5681 H   0  0
   -0.2428   -0.2636    0.0863 H   0  0
    0.7720    0.8216   -0.9250 H   0  0
    0.4724    0.7660   -3.4092 H   0  0
   -0.7470   -0.3583   -4.1022 H   0  0
    2.0963   -1.1927   -0.2434 H   0  0
    0.8683   -2.2707   -0.9164 H   0  0
    0.5820   -2.3242   -3.3039 H   0  0
    1.6098   -1.2829   -4.2956 H   0  0
   -2.7079    0.1383   -3.7478 H   0  0
   -3.7854    1.0155   -2.6374 H   0  0
   -1.2247    2.1079   -3.4828 H   0  0
   -0.1966    2.2617   -2.0396 H   0  0
   -2.0135    0.8144   -0.8104 H   0  0
   -1.1512   -1.1876   -1.9096 H   0  0
  1  5  1  0
  1  9  2  0
  2  6  2  0
  2  9  1  0
  3  7  2  0
  3 10  1  0
  4  8  1  0
  4 10  2  0
  5 11  2  0
  6 11  1  0
  7 12  1  0
  8 12  2  0
  9 22  1  0
 10 23  1  0
 11 24  1  0
 12 25  1  0
 13 15  1  0
 13 20  1  0
 14 16  1  0
 14 20  1  0
 15 21  1  0
 16 21  1  0
 17 19  1  0
 17 22  1  0
 18 19  1  0
 18 23  1  0
 19 20  1  0
  1 26  1  0
  2 27  1  0
  3 28  1  0
  4 29  1  0
  5 30  1  0
  6 31  1  0
  7 32  1  0
  8 33  1  0
 13 34  1  0
 13 35  1  0
 14 36  1  0
 14 37  1  0
 15 38  1  0
 15 39  1  0
 16 40  1  0
 16 41  1  0
 17 42  1  0
 17 43  1  0
 18 44  1  0
 18 45  1  0
 19 46  1  0
 20 47  1  0
M  CHG  1  20   1
M  END
> <Name>
BR010624

$$$$
BR010625
  SciTegic05062102053D

 53 55  0  0  1  0            999 V2000
    1.5869   -8.4771   -0.8843 C   0  0
   -4.8799   -7.1711   -4.5643 C   0  0
    1.7103   -9.4263   -1.8989 C   0  0
   -4.3685   -8.1711   -5.3914 C   0  0
    1.2282   -7.1656   -1.1959 C   0  0
   -4.0815   -6.0838   -4.2090 C   0  0
    1.1165   -7.7525   -3.5369 C   0  0
   -2.2604   -6.9966   -5.5079 C   0  0
    1.4751   -9.0640   -3.2252 C   0  0
   -3.0588   -8.0839   -5.8632 C   0  0
    0.9931   -6.8033   -2.5222 C   0  0
   -2.7718   -5.9966   -4.6808 C   0  0
   -2.9925   -0.8333   -0.0156 C   0  0
   -1.9684   -0.3602   -1.0416 C   0  0
   -2.6028   -2.1861    0.5704 C   0  0
   -1.7308   -1.4041   -2.1234 C   0  0
   -2.3625   -3.2234   -0.5169 C   0  0
   -0.0859   -4.7977   -1.8374 C   0  0
   -2.2462   -4.3311   -3.0666 C   0  0
   -0.9560   -3.7430   -2.5094 C   0  0  1  0  0  0
    1.6002  -10.0305   -4.2580 N   0  3
   -2.5385   -9.1017   -6.7058 N   0  3
   -1.3202   -2.7080   -1.4809 N   0  3
    1.9233  -11.2047   -3.9558 O   0  5
   -3.2736  -10.0708   -7.0137 O   0  5
    1.3840   -9.6838   -5.4443 O   0  0
   -1.3580   -9.0038   -7.1194 O   0  0
    0.6408   -5.5150   -2.8277 O   0  0
   -1.9882   -4.9284   -4.3315 O   0  0
    1.7705   -8.7590    0.1484 H   0  0
   -5.8995   -7.2392   -4.1964 H   0  0
    1.9903  -10.4452   -1.6422 H   0  0
   -5.0016   -9.0132   -5.6609 H   0  0
    1.1333   -6.4306   -0.4014 H   0  0
   -4.4854   -5.3078   -3.5646 H   0  0
    0.9325   -7.4627   -4.5690 H   0  0
   -1.2378   -6.9225   -5.8714 H   0  0
   -3.0833   -0.0930    0.7873 H   0  0
   -3.9774   -0.9119   -0.4922 H   0  0
   -2.3127    0.5728   -1.5014 H   0  0
   -1.0221   -0.1346   -0.5342 H   0  0
   -1.6953   -2.0722    1.1766 H   0  0
   -3.3929   -2.5365    1.2439 H   0  0
   -2.6344   -1.5934   -2.7136 H   0  0
   -0.9173   -1.0934   -2.7870 H   0  0
   -1.9801   -4.1537   -0.0847 H   0  0
   -3.2728   -3.4318   -1.0904 H   0  0
   -0.6843   -5.5076   -1.2561 H   0  0
    0.6404   -4.3240   -1.1688 H   0  0
   -2.9916   -3.5429   -3.2158 H   0  0
   -2.6688   -5.0893   -2.3984 H   0  0
   -0.4001   -3.1960   -3.2785 H   0  0
   -0.4651   -2.5252   -0.9377 H   0  0
  1  3  1  0
  1  5  2  0
  2  4  2  0
  2  6  1  0
  3  9  2  0
  4 10  1  0
  5 11  1  0
  6 12  2  0
  7  9  1  0
  7 11  2  0
  8 10  2  0
  8 12  1  0
  9 21  1  0
 10 22  1  0
 11 28  1  0
 12 29  1  0
 13 14  1  0
 13 15  1  0
 14 16  1  0
 15 17  1  0
 16 23  1  0
 17 23  1  0
 18 20  1  0
 18 28  1  0
 19 20  1  0
 19 29  1  0
 20 23  1  0
 21 24  1  0
 21 26  2  0
 22 25  1  0
 22 27  2  0
  1 30  1  0
  2 31  1  0
  3 32  1  0
  4 33  1  0
  5 34  1  0
  6 35  1  0
  7 36  1  0
  8 37  1  0
 13 38  1  0
 13 39  1  0
 14 40  1  0
 14 41  1  0
 15 42  1  0
 15 43  1  0
 16 44  1  0
 16 45  1  0
 17 46  1  0
 17 47  1  0
 18 48  1  0
 18 49  1  0
 19 50  1  0
 19 51  1  0
 20 52  1  0
 23 53  1  0
M  CHG  5  21   1  22   1  23   1  24  -1  25  -1
M  END
> <Name>
BR010625

$$$$
BR010626
  SciTegic05062102053D

 53 55  0  0  0  0            999 V2000
   -4.3217   -8.2268   -2.2084 C   0  0
   -4.2768   -8.1295   -4.6221 C   0  0
    4.5339   -3.1213   -1.5871 C   0  0
    4.0333   -0.7591   -1.6653 C   0  0
   -3.2722   -7.3098   -2.1519 C   0  0
   -3.2273   -7.2124   -4.5656 C   0  0
    3.2707   -3.4062   -2.1055 C   0  0
    2.7701   -1.0439   -2.1838 C   0  0
   -4.8239   -8.6368   -3.4435 C   0  0
    4.9152   -1.7978   -1.3669 C   0  0
   -2.7250   -6.8026   -3.3305 C   0  0
    2.3888   -2.3675   -2.4039 C   0  0
   -2.7938   -1.4789    0.7045 C   0  0
   -2.9625   -1.0122   -0.7374 C   0  0
   -1.4277   -2.1209    0.9210 C   0  0
   -2.6963   -2.1363   -1.7284 C   0  0
   -1.1667   -3.2407   -0.0760 C   0  0
   -1.6509   -5.0471   -2.1387 C   0  0
    0.5609   -3.8839   -2.5265 C   0  0
   -0.9560   -3.7430   -2.5094 C   0  0
   -5.8921   -9.5705   -3.5014 N   0  3
    6.2010   -1.5075   -0.8390 N   0  3
   -1.3202   -2.7080   -1.4809 N   0  3
   -6.3701  -10.0147   -2.4296 O   0  5
    6.9792   -2.4564   -0.5773 O   0  5
   -6.3292   -9.9255   -4.6227 O   0  0
    6.5240   -0.3100   -0.6490 O   0  0
   -1.6942   -5.9017   -3.2749 O   0  0
    1.1481   -2.6473   -2.9132 O   0  0
   -4.7393   -8.6142   -1.2823 H   0  0
   -4.6583   -8.4408   -5.5914 H   0  0
    5.2117   -3.9403   -1.3592 H   0  0
    4.3174    0.2770   -1.4982 H   0  0
   -2.8853   -6.9940   -1.1869 H   0  0
   -2.8049   -6.8211   -5.4871 H   0  0
    2.9794   -4.4392   -2.2752 H   0  0
    2.0874   -0.2305   -2.4138 H   0  0
   -2.9176   -0.6301    1.3865 H   0  0
   -3.5806   -2.2034    0.9482 H   0  0
   -3.9780   -0.6277   -0.8830 H   0  0
   -2.2757   -0.1793   -0.9333 H   0  0
   -0.6470   -1.3557    0.8267 H   0  0
   -1.3644   -2.5155    1.9412 H   0  0
   -3.4199   -2.9525   -1.6240 H   0  0
   -2.7158   -1.7576   -2.7554 H   0  0
   -0.1429   -3.6155    0.0242 H   0  0
   -1.8744   -4.0686    0.0457 H   0  0
   -2.6742   -4.8763   -1.7870 H   0  0
   -1.0938   -5.5664   -1.3520 H   0  0
    0.8655   -4.6406   -3.2570 H   0  0
    0.9535   -4.1687   -1.5443 H   0  0
   -1.3320   -3.3444   -3.4578 H   0  0
   -0.6452   -1.9387   -1.5917 H   0  0
  1  5  1  0
  1  9  2  0
  2  6  2  0
  2  9  1  0
  3  7  1  0
  3 10  2  0
  4  8  2  0
  4 10  1  0
  5 11  2  0
  6 11  1  0
  7 12  2  0
  8 12  1  0
  9 21  1  0
 10 22  1  0
 11 28  1  0
 12 29  1  0
 13 14  1  0
 13 15  1  0
 14 16  1  0
 15 17  1  0
 16 23  1  0
 17 23  1  0
 18 20  1  0
 18 28  1  0
 19 20  1  0
 19 29  1  0
 20 23  1  0
 21 24  1  0
 21 26  2  0
 22 25  1  0
 22 27  2  0
  1 30  1  0
  2 31  1  0
  3 32  1  0
  4 33  1  0
  5 34  1  0
  6 35  1  0
  7 36  1  0
  8 37  1  0
 13 38  1  0
 13 39  1  0
 14 40  1  0
 14 41  1  0
 15 42  1  0
 15 43  1  0
 16 44  1  0
 16 45  1  0
 17 46  1  0
 17 47  1  0
 18 48  1  0
 18 49  1  0
 19 50  1  0
 19 51  1  0
 20 52  1  0
 23 53  1  0
M  CHG  5  21   1  22   1  23   1  24  -1  25  -1
M  END
> <Name>
BR010626

$$$$
BR010627
  SciTegic05062102053D

 55 57  0  0  0  0            999 V2000
   -4.3224   -8.2258   -2.2081 C   0  0
   -4.2785   -8.1278   -4.6217 C   0  0
    4.5342   -3.1216   -1.5883 C   0  0
    4.0344   -0.7592   -1.6675 C   0  0
   -3.2721   -7.3097   -2.1518 C   0  0
   -3.2282   -7.2116   -4.5655 C   0  0
    3.2706   -3.4063   -2.1056 C   0  0
    2.7707   -1.0439   -2.1848 C   0  0
   -4.8256   -8.6349   -3.4431 C   0  0
    4.9162   -1.7980   -1.3692 C   0  0
   -2.7250   -6.8026   -3.3305 C   0  0
    2.3888   -2.3675   -2.4039 C   0  0
   -2.7938   -1.4789    0.7045 C   0  0
   -2.9625   -1.0122   -0.7374 C   0  0
   -1.4277   -2.1209    0.9210 C   0  0
   -2.6963   -2.1363   -1.7284 C   0  0
   -1.1667   -3.2407   -0.0760 C   0  0
   -5.9489   -9.6139   -3.5035 C   0  0
    6.2674   -1.4934   -0.8168 C   0  0
   -1.6509   -5.0471   -2.1387 C   0  0
    0.5609   -3.8839   -2.5265 C   0  0
   -0.9560   -3.7430   -2.5094 C   0  0
   -1.3202   -2.7080   -1.4809 N   0  3
   -1.6942   -5.9017   -3.2749 O   0  0
    1.1481   -2.6473   -2.9132 O   0  0
   -4.7424   -8.6158   -1.2849 H   0  0
   -4.6642   -8.4410   -5.5885 H   0  0
    5.2147   -3.9371   -1.3587 H   0  0
    4.3235    0.2752   -1.5000 H   0  0
   -2.8845   -6.9946   -1.1866 H   0  0
   -2.8067   -6.8201   -5.4870 H   0  0
    2.9789   -4.4395   -2.2743 H   0  0
    2.0887   -0.2304   -2.4154 H   0  0
   -2.9176   -0.6301    1.3865 H   0  0
   -3.5806   -2.2034    0.9482 H   0  0
   -3.9780   -0.6277   -0.8830 H   0  0
   -2.2757   -0.1793   -0.9333 H   0  0
   -0.6470   -1.3557    0.8267 H   0  0
   -1.3644   -2.5155    1.9412 H   0  0
   -3.4199   -2.9525   -1.6240 H   0  0
   -2.7158   -1.7576   -2.7554 H   0  0
   -0.1429   -3.6155    0.0242 H   0  0
   -1.8744   -4.0686    0.0457 H   0  0
   -6.9127   -9.0902   -3.5000 H   0  0
   -5.8915  -10.2310   -4.4096 H   0  0
   -5.9239  -10.3023   -2.6486 H   0  0
    6.9929   -1.3668   -1.6297 H   0  0
    6.2546   -0.5748   -0.2159 H   0  0
    6.6196   -2.2984   -0.1584 H   0  0
   -2.6742   -4.8763   -1.7870 H   0  0
   -1.0938   -5.5664   -1.3520 H   0  0
    0.8655   -4.6406   -3.2570 H   0  0
    0.9535   -4.1687   -1.5443 H   0  0
   -1.3320   -3.3444   -3.4578 H   0  0
   -0.6452   -1.9387   -1.5917 H   0  0
  1  5  1  0
  1  9  2  0
  2  6  2  0
  2  9  1  0
  3  7  1  0
  3 10  2  0
  4  8  2  0
  4 10  1  0
  5 11  2  0
  6 11  1  0
  7 12  2  0
  8 12  1  0
  9 18  1  0
 10 19  1  0
 11 24  1  0
 12 25  1  0
 13 14  1  0
 13 15  1  0
 14 16  1  0
 15 17  1  0
 16 23  1  0
 17 23  1  0
 20 22  1  0
 20 24  1  0
 21 22  1  0
 21 25  1  0
 22 23  1  0
  1 26  1  0
  2 27  1  0
  3 28  1  0
  4 29  1  0
  5 30  1  0
  6 31  1  0
  7 32  1  0
  8 33  1  0
 13 34  1  0
 13 35  1  0
 14 36  1  0
 14 37  1  0
 15 38  1  0
 15 39  1  0
 16 40  1  0
 16 41  1  0
 17 42  1  0
 17 43  1  0
 18 44  1  0
 18 45  1  0
 18 46  1  0
 19 47  1  0
 19 48  1  0
 19 49  1  0
 20 50  1  0
 20 51  1  0
 21 52  1  0
 21 53  1  0
 22 54  1  0
 23 55  1  0
M  CHG  1  23   1
M  END
> <Name>
BR010627

$$$$
BR010628
  SciTegic05062102053D

 49 51  0  0  0  0            999 V2000
   -3.2724   -7.3100   -2.1520 C   0  0
   -3.2275   -7.2119   -4.5656 C   0  0
    3.2709   -3.4060   -2.1054 C   0  0
    2.7701   -1.0438   -2.1843 C   0  0
   -4.3222   -8.2266   -2.2088 C   0  0
   -4.2773   -8.1285   -4.6224 C   0  0
    4.5343   -3.1209   -1.5876 C   0  0
    4.0334   -0.7587   -1.6664 C   0  0
   -2.7250   -6.8026   -3.3305 C   0  0
    2.3888   -2.3675   -2.4039 C   0  0
   -4.8247   -8.6359   -3.4440 C   0  0
    4.9155   -1.7973   -1.3680 C   0  0
   -2.7938   -1.4789    0.7045 C   0  0
   -2.9625   -1.0122   -0.7374 C   0  0
   -1.4277   -2.1209    0.9210 C   0  0
   -2.6963   -2.1363   -1.7284 C   0  0
   -1.1667   -3.2407   -0.0760 C   0  0
   -1.6509   -5.0471   -2.1387 C   0  0
    0.5609   -3.8839   -2.5265 C   0  0
   -0.9560   -3.7430   -2.5094 C   0  0
   -1.3202   -2.7080   -1.4809 N   0  3
   -1.6942   -5.9017   -3.2749 O   0  0
    1.1481   -2.6473   -2.9132 O   0  0
   -6.1209   -9.7657   -3.5142 Cl  0  0
    6.4747   -1.4452   -0.7304 Cl  0  0
   -2.8860   -6.9950   -1.1867 H   0  0
   -2.8055   -6.8198   -5.4869 H   0  0
    2.9804   -4.4391   -2.2744 H   0  0
    2.0875   -0.2306   -2.4152 H   0  0
   -4.7399   -8.6131   -1.2824 H   0  0
   -4.6596   -8.4379   -5.5919 H   0  0
    5.2120   -3.9402   -1.3605 H   0  0
    4.3176    0.2776   -1.5013 H   0  0
   -2.9176   -0.6301    1.3865 H   0  0
   -3.5806   -2.2034    0.9482 H   0  0
   -3.9780   -0.6277   -0.8830 H   0  0
   -2.2757   -0.1793   -0.9333 H   0  0
   -0.6470   -1.3557    0.8267 H   0  0
   -1.3644   -2.5155    1.9412 H   0  0
   -3.4199   -2.9525   -1.6240 H   0  0
   -2.7158   -1.7576   -2.7554 H   0  0
   -0.1429   -3.6155    0.0242 H   0  0
   -1.8744   -4.0686    0.0457 H   0  0
   -2.6742   -4.8763   -1.7870 H   0  0
   -1.0938   -5.5664   -1.3520 H   0  0
    0.8655   -4.6406   -3.2570 H   0  0
    0.9535   -4.1687   -1.5443 H   0  0
   -1.3320   -3.3444   -3.4578 H   0  0
   -0.6452   -1.9387   -1.5917 H   0  0
  1  5  1  0
  1  9  2  0
  2  6  2  0
  2  9  1  0
  3  7  2  0
  3 10  1  0
  4  8  1  0
  4 10  2  0
  5 11  2  0
  6 11  1  0
  7 12  1  0
  8 12  2  0
  9 22  1  0
 10 23  1  0
 11 24  1  0
 12 25  1  0
 13 14  1  0
 13 15  1  0
 14 16  1  0
 15 17  1  0
 16 21  1  0
 17 21  1  0
 18 20  1  0
 18 22  1  0
 19 20  1  0
 19 23  1  0
 20 21  1  0
  1 26  1  0
  2 27  1  0
  3 28  1  0
  4 29  1  0
  5 30  1  0
  6 31  1  0
  7 32  1  0
  8 33  1  0
 13 34  1  0
 13 35  1  0
 14 36  1  0
 14 37  1  0
 15 38  1  0
 15 39  1  0
 16 40  1  0
 16 41  1  0
 17 42  1  0
 17 43  1  0
 18 44  1  0
 18 45  1  0
 19 46  1  0
 19 47  1  0
 20 48  1  0
 21 49  1  0
M  CHG  1  21   1
M  END
> <Name>
BR010628

$$$$
BR010629
  SciTegic05062102053D

 55 57  0  0  1  0            999 V2000
   -0.5257    2.7826    7.9980 C   0  0
   -4.8867   -3.1098    6.6878 C   0  0
   -1.2929    2.4231    9.1060 C   0  0
   -5.6491   -2.1208    7.3092 C   0  0
   -0.1862    1.8234    7.0438 C   0  0
   -3.9206   -2.7567    5.7456 C   0  0
   -1.3812    0.1452    8.3057 C   0  0
   -4.4795   -0.4256    6.0461 C   0  0
   -1.7206    1.1043    9.2599 C   0  0
   -5.4456   -0.7787    6.9883 C   0  0
   -0.6140    0.5047    7.1976 C   0  0
   -3.7170   -1.4146    5.4248 C   0  0
   -1.3949   -0.8801    0.2611 C   0  0
   -0.0311    1.0387    0.8140 C   0  0
   -1.0306   -1.5620    1.5756 C   0  0
    0.3727    0.4125    2.1446 C   0  0
   -0.6604    0.6217   -1.4741 C   0  0
   -0.1102    0.0214    4.9242 C   0  0
   -1.6363   -1.9236    4.3917 C   0  0
   -0.4244   -1.1105    3.9543 C   0  0  1  0  0  0
   -0.3158    0.0073   -0.1923 N   0  0
   -2.5023    0.7385   10.3877 N   0  3
   -6.2214    0.2282    7.6214 N   0  3
   -0.7261   -0.5090    2.6111 N   0  3
   -2.7969    1.6169   11.2338 O   0  5
   -7.0847   -0.1110    8.4664 O   0  5
   -2.8770   -0.4529   10.5068 O   0  0
   -6.0221    1.4294    7.3186 O   0  0
   -0.2803   -0.4369    6.2600 O   0  0
   -2.7679   -1.0686    4.4993 O   0  0
   -0.1921    3.8093    7.8784 H   0  0
   -5.0456   -4.1549    6.9372 H   0  0
   -1.5507    3.1806    9.8424 H   0  0
   -6.3989   -2.4096    8.0421 H   0  0
    0.4114    2.1094    6.1826 H   0  0
   -3.3295   -3.5315    5.2650 H   0  0
   -1.7105   -0.8853    8.4197 H   0  0
   -4.3159    0.6190    5.7903 H   0  0
   -1.5720   -1.6605   -0.4888 H   0  0
   -2.3348   -0.3243    0.3791 H   0  0
   -0.9012    1.6927    0.9603 H   0  0
    0.7966    1.6712    0.4712 H   0  0
   -1.8710   -2.1561    1.9495 H   0  0
   -0.1455   -2.2011    1.4762 H   0  0
    1.2921   -0.1782    2.0584 H   0  0
    0.5016    1.1832    2.9116 H   0  0
    0.1472    1.2801   -1.8043 H   0  0
   -1.5768    1.2101   -1.3769 H   0  0
   -0.8181   -0.1497   -2.2327 H   0  0
   -0.7620    0.8871    4.7630 H   0  0
    0.9305    0.3426    4.8119 H   0  0
   -1.4609   -2.3702    5.3760 H   0  0
   -1.8660   -2.7247    3.6808 H   0  0
    0.4491   -1.7506    3.7893 H   0  0
   -1.5753    0.0607    2.7289 H   0  0
  1  3  1  0
  1  5  2  0
  2  4  2  0
  2  6  1  0
  3  9  2  0
  4 10  1  0
  5 11  1  0
  6 12  2  0
  7  9  1  0
  7 11  2  0
  8 10  2  0
  8 12  1  0
  9 22  1  0
 10 23  1  0
 11 29  1  0
 12 30  1  0
 13 15  1  0
 13 21  1  0
 14 16  1  0
 14 21  1  0
 15 24  1  0
 16 24  1  0
 17 21  1  0
 18 20  1  0
 18 29  1  0
 19 20  1  0
 19 30  1  0
 20 24  1  0
 22 25  1  0
 22 27  2  0
 23 26  1  0
 23 28  2  0
  1 31  1  0
  2 32  1  0
  3 33  1  0
  4 34  1  0
  5 35  1  0
  6 36  1  0
  7 37  1  0
  8 38  1  0
 13 39  1  0
 13 40  1  0
 14 41  1  0
 14 42  1  0
 15 43  1  0
 15 44  1  0
 16 45  1  0
 16 46  1  0
 17 47  1  0
 17 48  1  0
 17 49  1  0
 18 50  1  0
 18 51  1  0
 19 52  1  0
 19 53  1  0
 20 54  1  0
 24 55  1  0
M  CHG  5  22   1  23   1  24   1  25  -1  26  -1
M  END
> <Name>
BR010629

$$$$
BR010630
  SciTegic05062102053D

 55 57  0  0  0  0            999 V2000
   -5.1119    0.8463    6.3462 C   0  0
   -6.1749    0.1334    4.2970 C   0  0
    3.8716    0.8492    6.9692 C   0  0
    3.1051   -0.7230    8.6359 C   0  0
   -3.9577    0.1488    5.9901 C   0  0
   -5.0206   -0.5641    3.9409 C   0  0
    3.0441    0.2476    6.0211 C   0  0
    2.2775   -1.3246    7.6878 C   0  0
   -6.2205    0.8385    5.4997 C   0  0
    3.9021    0.3638    8.2766 C   0  0
   -3.9120   -0.5564    4.7875 C   0  0
    2.2470   -0.8393    6.3804 C   0  0
   -0.4030   -0.6023    0.1627 C   0  0
   -0.8492    1.5278    1.2167 C   0  0
    0.0033   -1.2176    1.4977 C   0  0
   -0.4559    0.9743    2.5823 C   0  0
   -0.4819    1.4090   -1.1615 C   0  0
   -1.5427   -0.7201    4.9123 C   0  0
    0.9332   -0.5937    4.4133 C   0  0
   -0.4244   -1.1105    3.9543 C   0  0
   -0.1270    0.8402    0.1383 N   0  0
   -7.3958    1.5483    5.8620 N   0  3
    4.7446    0.9759    9.2419 N   0  3
   -0.7261   -0.5090    2.6111 N   0  3
   -7.4163    2.1762    6.9482 O   0  5
    5.4538    1.9523    8.8983 O   0  5
   -8.3815    1.5285    5.0858 O   0  0
    4.7566    0.5237   10.4123 O   0  0
   -2.7782   -1.2414    4.4377 O   0  0
    1.4341   -1.4301    5.4491 O   0  0
   -5.1342    1.3921    7.2862 H   0  0
   -7.0319    0.1185    3.6281 H   0  0
    4.4875    1.6958    6.6761 H   0  0
    3.1195   -1.1118    9.6511 H   0  0
   -3.0971    0.1588    6.6535 H   0  0
   -4.9912   -1.1119    3.0030 H   0  0
    3.0243    0.6303    5.0043 H   0  0
    1.6592   -2.1712    7.9735 H   0  0
    0.1678   -1.1018   -0.6294 H   0  0
   -1.4661   -0.8005   -0.0293 H   0  0
   -1.9351    1.4387    1.0787 H   0  0
   -0.6066    2.5972    1.2010 H   0  0
   -0.2813   -2.2741    1.5396 H   0  0
    1.0790   -1.1200    1.6854 H   0  0
    0.6086    1.1258    2.7959 H   0  0
   -1.0583    1.4325    3.3735 H   0  0
   -0.2737    2.4821   -1.1715 H   0  0
   -1.5454    1.2550   -1.3639 H   0  0
    0.0986    0.9305   -1.9548 H   0  0
   -1.6331    0.3673    5.0095 H   0  0
   -1.3609   -1.1452    5.9049 H   0  0
    0.8387    0.4191    4.8187 H   0  0
    1.6592   -0.5751    3.5931 H   0  0
   -0.4040   -2.1921    3.7821 H   0  0
   -1.7343   -0.6407    2.4505 H   0  0
  1  5  1  0
  1  9  2  0
  2  6  2  0
  2  9  1  0
  3  7  1  0
  3 10  2  0
  4  8  2  0
  4 10  1  0
  5 11  2  0
  6 11  1  0
  7 12  2  0
  8 12  1  0
  9 22  1  0
 10 23  1  0
 11 29  1  0
 12 30  1  0
 13 15  1  0
 13 21  1  0
 14 16  1  0
 14 21  1  0
 15 24  1  0
 16 24  1  0
 17 21  1  0
 18 20  1  0
 18 29  1  0
 19 20  1  0
 19 30  1  0
 20 24  1  0
 22 25  1  0
 22 27  2  0
 23 26  1  0
 23 28  2  0
  1 31  1  0
  2 32  1  0
  3 33  1  0
  4 34  1  0
  5 35  1  0
  6 36  1  0
  7 37  1  0
  8 38  1  0
 13 39  1  0
 13 40  1  0
 14 41  1  0
 14 42  1  0
 15 43  1  0
 15 44  1  0
 16 45  1  0
 16 46  1  0
 17 47  1  0
 17 48  1  0
 17 49  1  0
 18 50  1  0
 18 51  1  0
 19 52  1  0
 19 53  1  0
 20 54  1  0
 24 55  1  0
M  CHG  5  22   1  23   1  24   1  25  -1  26  -1
M  END
> <Name>
BR010630

$$$$
BR010631
  SciTegic05062102053D

 57 59  0  0  0  0            999 V2000
   -5.1112    0.8473    6.3458 C   0  0
   -6.1740    0.1356    4.2962 C   0  0
    3.8706    0.8500    6.9692 C   0  0
    3.1034   -0.7213    8.6364 C   0  0
   -3.9575    0.1487    5.9902 C   0  0
   -5.0202   -0.5630    3.9405 C   0  0
    3.0440    0.2476    6.0209 C   0  0
    2.2767   -1.3237    7.6881 C   0  0
   -6.2195    0.8407    5.4988 C   0  0
    3.9004    0.3656    8.2770 C   0  0
   -3.9120   -0.5564    4.7875 C   0  0
    2.2470   -0.8393    6.3804 C   0  0
   -0.4030   -0.6023    0.1627 C   0  0
   -0.8492    1.5278    1.2167 C   0  0
    0.0033   -1.2176    1.4977 C   0  0
   -0.4559    0.9743    2.5823 C   0  0
   -7.4529    1.5880    5.8786 C   0  0
    4.7837    1.0100    9.2911 C   0  0
   -0.4819    1.4090   -1.1615 C   0  0
   -1.5427   -0.7201    4.9123 C   0  0
    0.9332   -0.5937    4.4133 C   0  0
   -0.4244   -1.1105    3.9543 C   0  0
   -0.1270    0.8402    0.1383 N   0  0
   -0.7261   -0.5090    2.6111 N   0  3
   -2.7782   -1.2414    4.4377 O   0  0
    1.4341   -1.4301    5.4491 O   0  0
   -5.1379    1.3938    7.2847 H   0  0
   -7.0329    0.1248    3.6300 H   0  0
    4.4882    1.6962    6.6804 H   0  0
    3.1202   -1.1055    9.6530 H   0  0
   -3.0972    0.1579    6.6541 H   0  0
   -4.9909   -1.1099    3.0023 H   0  0
    3.0250    0.6298    5.0038 H   0  0
    1.6581   -2.1696    7.9744 H   0  0
    0.1678   -1.1018   -0.6294 H   0  0
   -1.4661   -0.8005   -0.0293 H   0  0
   -1.9351    1.4387    1.0787 H   0  0
   -0.6066    2.5972    1.2010 H   0  0
   -0.2813   -2.2741    1.5396 H   0  0
    1.0790   -1.1200    1.6854 H   0  0
    0.6086    1.1258    2.7959 H   0  0
   -1.0583    1.4325    3.3735 H   0  0
   -7.4090    2.6160    5.4985 H   0  0
   -8.3519    1.1055    5.4736 H   0  0
   -7.5765    1.6252    6.9689 H   0  0
    4.2486    1.8172    9.8061 H   0  0
    5.1245    0.2846   10.0413 H   0  0
    5.6841    1.4314    8.8251 H   0  0
   -0.2737    2.4821   -1.1715 H   0  0
   -1.5454    1.2550   -1.3639 H   0  0
    0.0986    0.9305   -1.9548 H   0  0
   -1.6331    0.3673    5.0095 H   0  0
   -1.3609   -1.1452    5.9049 H   0  0
    0.8387    0.4191    4.8187 H   0  0
    1.6592   -0.5751    3.5931 H   0  0
   -0.4040   -2.1921    3.7821 H   0  0
   -1.7343   -0.6407    2.4505 H   0  0
  1  5  1  0
  1  9  2  0
  2  6  2  0
  2  9  1  0
  3  7  1  0
  3 10  2  0
  4  8  2  0
  4 10  1  0
  5 11  2  0
  6 11  1  0
  7 12  2  0
  8 12  1  0
  9 17  1  0
 10 18  1  0
 11 25  1  0
 12 26  1  0
 13 15  1  0
 13 23  1  0
 14 16  1  0
 14 23  1  0
 15 24  1  0
 16 24  1  0
 19 23  1  0
 20 22  1  0
 20 25  1  0
 21 22  1  0
 21 26  1  0
 22 24  1  0
  1 27  1  0
  2 28  1  0
  3 29  1  0
  4 30  1  0
  5 31  1  0
  6 32  1  0
  7 33  1  0
  8 34  1  0
 13 35  1  0
 13 36  1  0
 14 37  1  0
 14 38  1  0
 15 39  1  0
 15 40  1  0
 16 41  1  0
 16 42  1  0
 17 43  1  0
 17 44  1  0
 17 45  1  0
 18 46  1  0
 18 47  1  0
 18 48  1  0
 19 49  1  0
 19 50  1  0
 19 51  1  0
 20 52  1  0
 20 53  1  0
 21 54  1  0
 21 55  1  0
 22 56  1  0
 24 57  1  0
M  CHG  1  24   1
M  END
> <Name>
BR010631

$$$$
BR010632
  SciTegic05062102053D

 51 53  0  0  0  0            999 V2000
   -3.9579    0.1489    5.9901 C   0  0
   -5.0202   -0.5638    3.9405 C   0  0
    3.0442    0.2476    6.0214 C   0  0
    2.2769   -1.3244    7.6878 C   0  0
   -5.1121    0.8468    6.3457 C   0  0
   -6.1744    0.1341    4.2961 C   0  0
    3.8712    0.8494    6.9698 C   0  0
    3.1040   -0.7227    8.6362 C   0  0
   -3.9120   -0.5564    4.7875 C   0  0
    2.2470   -0.8393    6.3804 C   0  0
   -6.2203    0.8394    5.4987 C   0  0
    3.9011    0.3642    8.2772 C   0  0
   -0.4030   -0.6023    0.1627 C   0  0
   -0.8492    1.5278    1.2167 C   0  0
    0.0033   -1.2176    1.4977 C   0  0
   -0.4559    0.9743    2.5823 C   0  0
   -0.4819    1.4090   -1.1615 C   0  0
   -1.5427   -0.7201    4.9123 C   0  0
    0.9332   -0.5937    4.4133 C   0  0
   -0.4244   -1.1105    3.9543 C   0  0
   -0.1270    0.8402    0.1383 N   0  0
   -0.7261   -0.5090    2.6111 N   0  3
   -2.7782   -1.2414    4.4377 O   0  0
    1.4341   -1.4301    5.4491 O   0  0
   -7.6439    1.7015    5.9366 Cl  0  0
    4.9203    1.1074    9.4478 Cl  0  0
   -3.0981    0.1591    6.6541 H   0  0
   -4.9903   -1.1109    3.0023 H   0  0
    3.0253    0.6307    5.0049 H   0  0
    1.6580   -2.1705    7.9735 H   0  0
   -5.1336    1.3930    7.2855 H   0  0
   -7.0303    0.1204    3.6260 H   0  0
    4.4864    1.6964    6.6764 H   0  0
    3.1165   -1.1107    9.6517 H   0  0
    0.1678   -1.1018   -0.6294 H   0  0
   -1.4661   -0.8005   -0.0293 H   0  0
   -1.9351    1.4387    1.0787 H   0  0
   -0.6066    2.5972    1.2010 H   0  0
   -0.2813   -2.2741    1.5396 H   0  0
    1.0790   -1.1200    1.6854 H   0  0
    0.6086    1.1258    2.7959 H   0  0
   -1.0583    1.4325    3.3735 H   0  0
   -0.2737    2.4821   -1.1715 H   0  0
   -1.5454    1.2550   -1.3639 H   0  0
    0.0986    0.9305   -1.9548 H   0  0
   -1.6331    0.3673    5.0095 H   0  0
   -1.3609   -1.1452    5.9049 H   0  0
    0.8387    0.4191    4.8187 H   0  0
    1.6592   -0.5751    3.5931 H   0  0
   -0.4040   -2.1921    3.7821 H   0  0
   -1.7343   -0.6407    2.4505 H   0  0
  1  5  1  0
  1  9  2  0
  2  6  2  0
  2  9  1  0
  3  7  2  0
  3 10  1  0
  4  8  1  0
  4 10  2  0
  5 11  2  0
  6 11  1  0
  7 12  1  0
  8 12  2  0
  9 23  1  0
 10 24  1  0
 11 25  1  0
 12 26  1  0
 13 15  1  0
 13 21  1  0
 14 16  1  0
 14 21  1  0
 15 22  1  0
 16 22  1  0
 17 21  1  0
 18 20  1  0
 18 23  1  0
 19 20  1  0
 19 24  1  0
 20 22  1  0
  1 27  1  0
  2 28  1  0
  3 29  1  0
  4 30  1  0
  5 31  1  0
  6 32  1  0
  7 33  1  0
  8 34  1  0
 13 35  1  0
 13 36  1  0
 14 37  1  0
 14 38  1  0
 15 39  1  0
 15 40  1  0
 16 41  1  0
 16 42  1  0
 17 43  1  0
 17 44  1  0
 17 45  1  0
 18 46  1  0
 18 47  1  0
 19 48  1  0
 19 49  1  0
 20 50  1  0
 22 51  1  0
M  CHG  1  22   1
M  END
> <Name>
BR010632

$$$$
BR010633
  SciTegic05062102053D

 52 53  0  0  1  0            999 V2000
    4.6588    1.8452   -9.9883 C   0  0
    2.0056   -4.8740   -2.1078 C   0  0
    5.3329    0.8979  -10.7589 C   0  0
    0.9377   -5.2777   -2.9092 C   0  0
    4.0824    1.4739   -8.7735 C   0  0
    2.5230   -3.5846   -2.2327 C   0  0
    4.8540   -0.7922   -9.1001 C   0  0
    0.9046   -3.1027   -3.9606 C   0  0
    5.4304   -0.4208  -10.3148 C   0  0
    0.3872   -4.3920   -3.8356 C   0  0
    4.1800    0.1552   -8.3295 C   0  0
    1.9725   -2.6990   -3.1591 C   0  0
    9.6655   -0.8191   -3.5394 C   0  0
    8.4597    0.0839   -3.7451 C   0  0
    7.2171   -0.7190   -4.1280 C   0  0
    6.0092    0.1908   -4.2956 C   0  0
    3.5393    0.7939   -6.1300 C   0  0
    2.3908   -0.8272   -4.5652 C   0  0
    3.5548    0.1372   -4.7555 C   0  0  1  0  0  0
    6.1172   -1.3851  -11.0991 N   0  3
   -0.7004   -4.8029   -4.6511 N   0  3
    4.8211   -0.6341   -4.6215 N   0  3
    6.6290   -1.0299  -12.1883 O   0  5
   -1.1510   -5.9669   -4.5223 O   0  5
    6.1937   -2.5656  -10.6812 O   0  0
   -1.1810   -3.9906   -5.4778 O   0  0
    3.6136   -0.2088   -7.1362 O   0  0
    2.4811   -1.4327   -3.2813 O   0  0
    4.5823    2.8719  -10.3343 H   0  0
    2.4347   -5.5638   -1.3869 H   0  0
    5.7779    1.2006  -11.7038 H   0  0
    0.5438   -6.2856   -2.8016 H   0  0
    3.5588    2.2162   -8.1774 H   0  0
    3.3547   -3.2757   -1.6056 H   0  0
    4.9254   -1.8189   -8.7480 H   0  0
    0.4809   -2.4070   -4.6815 H   0  0
    9.8825   -1.3962   -4.4441 H   0  0
    9.4945   -1.5208   -2.7167 H   0  0
   10.5498   -0.2212   -3.2977 H   0  0
    8.2700    0.6460   -2.8232 H   0  0
    8.6874    0.8147   -4.5298 H   0  0
    7.4049   -1.2638   -5.0617 H   0  0
    7.0125   -1.4699   -3.3546 H   0  0
    5.7752    0.7353   -3.3760 H   0  0
    6.1400    0.8983   -5.1197 H   0  0
    4.3789    1.4855   -6.2591 H   0  0
    2.6059    1.3467   -6.2786 H   0  0
    2.4303   -1.6253   -5.3139 H   0  0
    1.4242   -0.3185   -4.6479 H   0  0
    3.5910    0.8842   -3.9552 H   0  0
    4.9928   -1.1488   -5.4978 H   0  0
    4.6974   -1.3560   -3.8963 H   0  0
  1  3  1  0
  1  5  2  0
  2  4  2  0
  2  6  1  0
  3  9  2  0
  4 10  1  0
  5 11  1  0
  6 12  2  0
  7  9  1  0
  7 11  2  0
  8 10  2  0
  8 12  1  0
  9 20  1  0
 10 21  1  0
 11 27  1  0
 12 28  1  0
 13 14  1  0
 14 15  1  0
 15 16  1  0
 16 22  1  0
 17 19  1  0
 17 27  1  0
 18 19  1  0
 18 28  1  0
 19 22  1  0
 20 23  1  0
 20 25  2  0
 21 24  1  0
 21 26  2  0
  1 29  1  0
  2 30  1  0
  3 31  1  0
  4 32  1  0
  5 33  1  0
  6 34  1  0
  7 35  1  0
  8 36  1  0
 13 37  1  0
 13 38  1  0
 13 39  1  0
 14 40  1  0
 14 41  1  0
 15 42  1  0
 15 43  1  0
 16 44  1  0
 16 45  1  0
 17 46  1  0
 17 47  1  0
 18 48  1  0
 18 49  1  0
 19 50  1  0
 22 51  1  0
 22 52  1  0
M  CHG  5  20   1  21   1  22   1  23  -1  24  -1
M  END
> <Name>
BR010633

$$$$
BR010634
  SciTegic05062102053D

 52 53  0  0  0  0            999 V2000
    2.1946    2.1241   -9.8274 C   0  0
    0.0594    2.6087   -8.8060 C   0  0
    6.5371   -4.5489   -4.0261 C   0  0
    4.8058   -5.5714   -5.3656 C   0  0
    2.7398    1.8724   -8.5685 C   0  0
    0.6046    2.3570   -7.5470 C   0  0
    6.0631   -3.2852   -4.3780 C   0  0
    4.3317   -4.3076   -5.7175 C   0  0
    0.8544    2.4923   -9.9462 C   0  0
    5.9085   -5.6921   -4.5200 C   0  0
    1.9448    1.9888   -7.4282 C   0  0
    4.9604   -3.1645   -5.2237 C   0  0
   -1.2572   -2.3946   -1.5667 C   0  0
    0.1224   -1.7600   -1.6408 C   0  0
    0.5453   -1.5056   -3.0871 C   0  0
    1.9109   -0.8376   -3.1473 C   0  0
    3.5393    0.7939   -6.1300 C   0  0
    4.6785   -0.8823   -4.6173 C   0  0
    3.5548    0.1372   -4.7555 C   0  0
    0.2991    2.7488  -11.2277 N   0  3
    6.3910   -6.9787   -4.1621 N   0  3
    2.2589   -0.5701   -4.5635 N   0  3
    1.0313    2.6385  -12.2407 O   0  5
    7.3843   -7.0653   -3.4002 O   0  5
   -0.9086    3.0783  -11.3120 O   0  0
    5.8106   -7.9938   -4.6172 O   0  0
    2.4803    1.7415   -6.1917 O   0  0
    4.4948   -1.9232   -5.5692 O   0  0
    2.8251    2.0294  -10.7081 H   0  0
   -0.9865    2.8953   -8.8840 H   0  0
    7.3973   -4.6289   -3.3659 H   0  0
    4.3067   -6.4539   -5.7581 H   0  0
    3.7843    1.5857   -8.4823 H   0  0
   -0.0196    2.4497   -6.6624 H   0  0
    6.5567   -2.3984   -3.9899 H   0  0
    3.4726   -4.2200   -6.3770 H   0  0
   -1.2832   -3.3422   -2.1143 H   0  0
   -2.0176   -1.7312   -1.9910 H   0  0
   -1.5257   -2.5970   -0.5251 H   0  0
    0.1141   -0.8157   -1.0840 H   0  0
    0.8484   -2.4192   -1.1509 H   0  0
    0.5716   -2.4559   -3.6348 H   0  0
   -0.2010   -0.8714   -3.5817 H   0  0
    1.9188    0.1268   -2.6308 H   0  0
    2.6994   -1.4790   -2.7426 H   0  0
    3.4010    0.0583   -6.9300 H   0  0
    4.4773    1.3301   -6.3076 H   0  0
    4.6623   -1.3352   -3.6205 H   0  0
    5.6618   -0.4271   -4.7781 H   0  0
    3.5910    0.8842   -3.9552 H   0  0
    2.2841   -1.4599   -5.0829 H   0  0
    1.5079   -0.0158   -5.0006 H   0  0
  1  5  1  0
  1  9  2  0
  2  6  2  0
  2  9  1  0
  3  7  1  0
  3 10  2  0
  4  8  2  0
  4 10  1  0
  5 11  2  0
  6 11  1  0
  7 12  2  0
  8 12  1  0
  9 20  1  0
 10 21  1  0
 11 27  1  0
 12 28  1  0
 13 14  1  0
 14 15  1  0
 15 16  1  0
 16 22  1  0
 17 19  1  0
 17 27  1  0
 18 19  1  0
 18 28  1  0
 19 22  1  0
 20 23  1  0
 20 25  2  0
 21 24  1  0
 21 26  2  0
  1 29  1  0
  2 30  1  0
  3 31  1  0
  4 32  1  0
  5 33  1  0
  6 34  1  0
  7 35  1  0
  8 36  1  0
 13 37  1  0
 13 38  1  0
 13 39  1  0
 14 40  1  0
 14 41  1  0
 15 42  1  0
 15 43  1  0
 16 44  1  0
 16 45  1  0
 17 46  1  0
 17 47  1  0
 18 48  1  0
 18 49  1  0
 19 50  1  0
 22 51  1  0
 22 52  1  0
M  CHG  5  20   1  21   1  22   1  23  -1  24  -1
M  END
> <Name>
BR010634

$$$$
BR010635
  SciTegic05062102053D

 54 55  0  0  0  0            999 V2000
    2.1945    2.1228   -9.8275 C   0  0
    0.0589    2.6063   -8.8064 C   0  0
    6.5365   -4.5487   -4.0250 C   0  0
    4.8046   -5.5714   -5.3635 C   0  0
    2.7399    1.8724   -8.5684 C   0  0
    0.6043    2.3558   -7.5473 C   0  0
    6.0631   -3.2850   -4.3780 C   0  0
    4.3311   -4.3077   -5.7164 C   0  0
    0.8541    2.4898   -9.9465 C   0  0
    5.9073   -5.6919   -4.5178 C   0  0
    1.9448    1.9888   -7.4282 C   0  0
    4.9604   -3.1645   -5.2237 C   0  0
    0.2707    2.7570  -11.2927 C   0  0
    6.4129   -7.0430   -4.1400 C   0  0
   -1.2572   -2.3946   -1.5667 C   0  0
    0.1224   -1.7600   -1.6408 C   0  0
    0.5453   -1.5056   -3.0871 C   0  0
    1.9109   -0.8376   -3.1473 C   0  0
    3.5393    0.7939   -6.1300 C   0  0
    4.6785   -0.8823   -4.6173 C   0  0
    3.5548    0.1372   -4.7555 C   0  0
    2.2589   -0.5701   -4.5635 N   0  3
    2.4803    1.7415   -6.1917 O   0  0
    4.4948   -1.9232   -5.5692 O   0  0
    2.8213    2.0298  -10.7103 H   0  0
   -0.9866    2.8918   -8.8896 H   0  0
    7.3962   -4.6332   -3.3657 H   0  0
    4.3080   -6.4567   -5.7523 H   0  0
    3.7849    1.5866   -8.4821 H   0  0
   -0.0203    2.4479   -6.6631 H   0  0
    6.5575   -2.3981   -3.9906 H   0  0
    3.4717   -4.2206   -6.3752 H   0  0
   -0.1426    1.8351  -11.7199 H   0  0
   -0.5309    3.5051  -11.2384 H   0  0
    1.0271    3.1519  -11.9836 H   0  0
    5.9159   -7.3957   -3.2280 H   0  0
    6.2327   -7.7738   -4.9391 H   0  0
    7.4962   -7.0278   -3.9622 H   0  0
   -1.2832   -3.3422   -2.1143 H   0  0
   -2.0176   -1.7312   -1.9910 H   0  0
   -1.5257   -2.5970   -0.5251 H   0  0
    0.1141   -0.8157   -1.0840 H   0  0
    0.8484   -2.4192   -1.1509 H   0  0
    0.5716   -2.4559   -3.6348 H   0  0
   -0.2010   -0.8714   -3.5817 H   0  0
    1.9188    0.1268   -2.6308 H   0  0
    2.6994   -1.4790   -2.7426 H   0  0
    3.4010    0.0583   -6.9300 H   0  0
    4.4773    1.3301   -6.3076 H   0  0
    4.6623   -1.3352   -3.6205 H   0  0
    5.6618   -0.4271   -4.7781 H   0  0
    3.5910    0.8842   -3.9552 H   0  0
    2.2841   -1.4599   -5.0829 H   0  0
    1.5079   -0.0158   -5.0006 H   0  0
  1  5  1  0
  1  9  2  0
  2  6  2  0
  2  9  1  0
  3  7  1  0
  3 10  2  0
  4  8  2  0
  4 10  1  0
  5 11  2  0
  6 11  1  0
  7 12  2  0
  8 12  1  0
  9 13  1  0
 10 14  1  0
 11 23  1  0
 12 24  1  0
 15 16  1  0
 16 17  1  0
 17 18  1  0
 18 22  1  0
 19 21  1  0
 19 23  1  0
 20 21  1  0
 20 24  1  0
 21 22  1  0
  1 25  1  0
  2 26  1  0
  3 27  1  0
  4 28  1  0
  5 29  1  0
  6 30  1  0
  7 31  1  0
  8 32  1  0
 13 33  1  0
 13 34  1  0
 13 35  1  0
 14 36  1  0
 14 37  1  0
 14 38  1  0
 15 39  1  0
 15 40  1  0
 15 41  1  0
 16 42  1  0
 16 43  1  0
 17 44  1  0
 17 45  1  0
 18 46  1  0
 18 47  1  0
 19 48  1  0
 19 49  1  0
 20 50  1  0
 20 51  1  0
 21 52  1  0
 22 53  1  0
 22 54  1  0
M  CHG  1  22   1
M  END
> <Name>
BR010635

$$$$
BR010636
  SciTegic05062102053D

 48 49  0  0  0  0            999 V2000
    2.7396    1.8725   -8.5687 C   0  0
    0.6045    2.3564   -7.5468 C   0  0
    6.0631   -3.2855   -4.3780 C   0  0
    4.3313   -4.3074   -5.7172 C   0  0
    2.1940    2.1236   -9.8276 C   0  0
    0.0589    2.6076   -8.8057 C   0  0
    6.5366   -4.5493   -4.0258 C   0  0
    4.8048   -5.5713   -5.3650 C   0  0
    1.9448    1.9888   -7.4282 C   0  0
    4.9604   -3.1645   -5.2237 C   0  0
    0.8537    2.4912   -9.9461 C   0  0
    5.9075   -5.6923   -4.5193 C   0  0
   -1.2572   -2.3946   -1.5667 C   0  0
    0.1224   -1.7600   -1.6408 C   0  0
    0.5453   -1.5056   -3.0871 C   0  0
    1.9109   -0.8376   -3.1473 C   0  0
    3.5393    0.7939   -6.1300 C   0  0
    4.6785   -0.8823   -4.6173 C   0  0
    3.5548    0.1372   -4.7555 C   0  0
    2.2589   -0.5701   -4.5635 N   0  3
    2.4803    1.7415   -6.1917 O   0  0
    4.4948   -1.9232   -5.5692 O   0  0
    0.1800    2.7998  -11.4993 Cl  0  0
    6.4906   -7.2517   -4.0838 Cl  0  0
    3.7841    1.5862   -8.4834 H   0  0
   -0.0197    2.4483   -6.6622 H   0  0
    6.5575   -2.3994   -3.9898 H   0  0
    3.4717   -4.2196   -6.3759 H   0  0
    2.8247    2.0282  -10.7080 H   0  0
   -0.9875    2.8923   -8.8832 H   0  0
    7.3963   -4.6288   -3.3650 H   0  0
    4.3041   -6.4534   -5.7562 H   0  0
   -1.2832   -3.3422   -2.1143 H   0  0
   -2.0176   -1.7312   -1.9910 H   0  0
   -1.5257   -2.5970   -0.5251 H   0  0
    0.1141   -0.8157   -1.0840 H   0  0
    0.8484   -2.4192   -1.1509 H   0  0
    0.5716   -2.4559   -3.6348 H   0  0
   -0.2010   -0.8714   -3.5817 H   0  0
    1.9188    0.1268   -2.6308 H   0  0
    2.6994   -1.4790   -2.7426 H   0  0
    3.4010    0.0583   -6.9300 H   0  0
    4.4773    1.3301   -6.3076 H   0  0
    4.6623   -1.3352   -3.6205 H   0  0
    5.6618   -0.4271   -4.7781 H   0  0
    3.5910    0.8842   -3.9552 H   0  0
    2.2841   -1.4599   -5.0829 H   0  0
    1.5079   -0.0158   -5.0006 H   0  0
  1  5  1  0
  1  9  2  0
  2  6  2  0
  2  9  1  0
  3  7  2  0
  3 10  1  0
  4  8  1  0
  4 10  2  0
  5 11  2  0
  6 11  1  0
  7 12  1  0
  8 12  2  0
  9 21  1  0
 10 22  1  0
 11 23  1  0
 12 24  1  0
 13 14  1  0
 14 15  1  0
 15 16  1  0
 16 20  1  0
 17 19  1  0
 17 21  1  0
 18 19  1  0
 18 22  1  0
 19 20  1  0
  1 25  1  0
  2 26  1  0
  3 27  1  0
  4 28  1  0
  5 29  1  0
  6 30  1  0
  7 31  1  0
  8 32  1  0
 13 33  1  0
 13 34  1  0
 13 35  1  0
 14 36  1  0
 14 37  1  0
 15 38  1  0
 15 39  1  0
 16 40  1  0
 16 41  1  0
 17 42  1  0
 17 43  1  0
 18 44  1  0
 18 45  1  0
 19 46  1  0
 20 47  1  0
 20 48  1  0
M  CHG  1  20   1
M  END
> <Name>
BR010636

$$$$
BR010637
  SciTegic05062102053D

 52 54  0  0  1  0            999 V2000
   -0.5358   -3.2760   -1.8250 C   0  0
    4.1715    2.0419   -3.7547 C   0  0
    0.4610    4.8878    3.8992 C   0  0
    2.7532    4.1333    3.7809 C   0  0
    0.0796    3.8655    3.0303 C   0  0
    2.3718    3.1110    2.9120 C   0  0
    0.3293   -3.7614   -2.8055 C   0  0
    3.6051    1.3793   -4.8436 C   0  0
   -0.0574   -2.4153   -0.8370 C   0  0
    3.4862    2.1019   -2.5412 C   0  0
    2.1512   -2.5257   -1.8100 C   0  0
    1.6678    0.8368   -3.5057 C   0  0
    1.7978    5.0218    4.2745 C   0  0
    1.0350    2.9771    2.5367 C   0  0
    1.6728   -3.3864   -2.7980 C   0  0
    2.3532    0.7767   -4.7191 C   0  0
    1.2860   -2.0402   -0.8295 C   0  0
    2.2343    1.4993   -2.4168 C   0  0
    2.2066    6.1147    5.2031 C   0  0
    0.8304   -0.2506    0.6691 C   0  0
    2.3548    1.6219   -0.0448 C   0  0
    1.5838    0.9995    1.1177 C   0  0  1  0  0  0
    0.6569    1.9621    1.6765 N   0  0
    2.5534   -3.8802   -3.7967 N   0  3
    1.7769    0.1017   -5.8276 N   0  3
    2.1025   -4.6528   -4.6766 O   0  5
    2.4105    0.0590   -6.9098 O   0  5
    3.7580   -3.5301   -3.7720 O   0  0
    0.6501   -0.4338   -5.6942 O   0  0
    1.7550   -1.1950    0.1410 O   0  0
    1.5619    1.5586   -1.2249 O   0  0
   -1.5817   -3.5684   -1.8304 H   0  0
    5.1460    2.5115   -3.8517 H   0  0
   -0.2896    5.5761    4.2781 H   0  0
    3.7971    4.2310    4.0664 H   0  0
   -0.9644    3.7710    2.7431 H   0  0
    3.1247    2.4248    2.5329 H   0  0
   -0.0565   -4.4316   -3.5701 H   0  0
    4.1501    1.3397   -5.7838 H   0  0
   -0.7361   -2.0401   -0.0759 H   0  0
    3.9325    2.6192   -1.6964 H   0  0
    3.1978   -2.2297   -1.7975 H   0  0
    0.6909    0.3700   -3.4017 H   0  0
    2.1482    5.7735    6.2440 H   0  0
    3.2342    6.4447    5.0024 H   0  0
    1.5622    6.9962    5.0892 H   0  0
    0.1129   -0.0088   -0.1219 H   0  0
    0.2952   -0.7173    1.5033 H   0  0
    3.2972    1.0953   -0.2303 H   0  0
    2.5718    2.6764    0.1544 H   0  0
    2.2717    0.7538    1.9354 H   0  0
   -0.3184    1.8836    1.4193 H   0  0
  1  7  1  0
  1  9  2  0
  2  8  2  0
  2 10  1  0
  3  5  2  0
  3 13  1  0
  4  6  1  0
  4 13  2  0
  5 14  1  0
  6 14  2  0
  7 15  2  0
  8 16  1  0
  9 17  1  0
 10 18  2  0
 11 15  1  0
 11 17  2  0
 12 16  2  0
 12 18  1  0
 13 19  1  0
 14 23  1  0
 15 24  1  0
 16 25  1  0
 17 30  1  0
 18 31  1  0
 20 22  1  0
 20 30  1  0
 21 22  1  0
 21 31  1  0
 22 23  1  0
 24 26  1  0
 24 28  2  0
 25 27  1  0
 25 29  2  0
  1 32  1  0
  2 33  1  0
  3 34  1  0
  4 35  1  0
  5 36  1  0
  6 37  1  0
  7 38  1  0
  8 39  1  0
  9 40  1  0
 10 41  1  0
 11 42  1  0
 12 43  1  0
 19 44  1  0
 19 45  1  0
 19 46  1  0
 20 47  1  0
 20 48  1  0
 21 49  1  0
 21 50  1  0
 22 51  1  0
 23 52  1  0
M  CHG  4  24   1  25   1  26  -1  27  -1
M  END
> <Name>
BR010637

$$$$
BR010638
  SciTegic05062102053D

 36 37  0  0  0  0            999 V2000
    1.5501   -3.2907    5.3054 C   0  0
   10.7288   -0.8088   -1.6488 C   0  0
    1.2212   -4.5691    4.8547 C   0  0
   10.8892   -2.0228   -2.3166 C   0  0
    2.4459   -2.5046    4.5806 C   0  0
    9.8909   -0.7300   -0.5364 C   0  0
    2.6838   -4.2753    2.9542 C   0  0
    9.3735   -3.0794   -0.7598 C   0  0
    1.7881   -5.0614    3.6791 C   0  0
   10.2115   -3.1581   -1.8722 C   0  0
    3.0127   -2.9969    3.4050 C   0  0
    9.2132   -1.8653   -0.0920 C   0  0
    6.1392   -2.0558    1.8276 C   0  0
    4.8952   -2.9112    1.9543 C   0  0
    7.2832   -2.6659    1.0439 C   0  0
    1.4527   -6.3627    3.2199 N   0  3
   10.3752   -4.3942   -2.5518 N   0  3
    0.6444   -7.0530    3.8867 O   0  5
   11.1341   -4.4433   -3.5498 O   0  5
    6.2161   -0.9360    2.3310 O   0  0
    1.9735   -6.7861    2.1599 O   0  0
    9.7568   -5.4033   -2.1354 O   0  0
    3.8866   -2.2293    2.6982 O   0  0
    8.3874   -1.7870    1.0045 O   0  0
    1.1093   -2.9075    6.2211 H   0  0
   11.2560    0.0754   -1.9951 H   0  0
    0.5214   -5.1715    5.4292 H   0  0
   11.5456   -2.0705   -3.1823 H   0  0
    2.6981   -1.5095    4.9364 H   0  0
    9.7701    0.2183   -0.0200 H   0  0
    3.1304   -4.6530    2.0371 H   0  0
    8.8412   -3.9604   -0.4082 H   0  0
    5.1414   -3.8489    2.4599 H   0  0
    4.5051   -3.1218    0.9550 H   0  0
    6.9585   -2.8798    0.0218 H   0  0
    7.5957   -3.5921    1.5334 H   0  0
  1  3  1  0
  1  5  2  0
  2  4  2  0
  2  6  1  0
  3  9  2  0
  4 10  1  0
  5 11  1  0
  6 12  2  0
  7  9  1  0
  7 11  2  0
  8 10  2  0
  8 12  1  0
  9 16  1  0
 10 17  1  0
 11 23  1  0
 12 24  1  0
 13 14  1  0
 13 15  1  0
 13 20  2  0
 14 23  1  0
 15 24  1  0
 16 18  1  0
 16 21  2  0
 17 19  1  0
 17 22  2  0
  1 25  1  0
  2 26  1  0
  3 27  1  0
  4 28  1  0
  5 29  1  0
  6 30  1  0
  7 31  1  0
  8 32  1  0
 14 33  1  0
 14 34  1  0
 15 35  1  0
 15 36  1  0
M  CHG  4  16   1  17   1  18  -1  19  -1
M  END
> <Name>
BR010638

$$$$
BR010639
  SciTegic05062102053D

 36 37  0  0  0  0            999 V2000
   -1.4632    3.4620    3.3315 C   0  0
    0.4864    3.5773    1.9092 C   0  0
   -1.8773   -5.9532    7.3969 C   0  0
   -0.5480   -7.4180    6.0097 C   0  0
   -1.3847    2.0694    3.3264 C   0  0
    0.5650    2.1846    1.9041 C   0  0
   -1.2674   -4.8443    6.8105 C   0  0
    0.0620   -6.3090    5.4232 C   0  0
   -0.5277    4.2160    2.6228 C   0  0
   -1.5176   -7.2401    6.9965 C   0  0
   -0.3706    1.4307    2.6127 C   0  0
   -0.2978   -5.0222    5.8237 C   0  0
   -0.0330   -1.9177    3.9628 C   0  0
   -0.7717   -0.6096    3.7668 C   0  0
   -0.4603   -2.7448    5.1580 C   0  0
   -0.6076    5.6337    2.6276 N   0  3
   -2.1382   -8.3691    7.5934 N   0  3
   -1.5276    6.1887    3.2758 O   0  5
   -3.0080   -8.1873    8.4794 O   0  5
    0.8593   -2.2848    3.1997 O   0  0
    0.2442    6.2927    1.9838 O   0  0
   -1.8001   -9.5178    7.2184 O   0  0
   -0.2939    0.0718    2.6079 O   0  0
    0.3033   -3.9291    5.2456 O   0  0
   -2.2584    3.9473    3.8921 H   0  0
    1.2218    4.1526    1.3521 H   0  0
   -2.6319   -5.8005    8.1647 H   0  0
   -0.2577   -8.4153    5.6885 H   0  0
   -2.1161    1.4875    3.8806 H   0  0
    1.3570    1.6928    1.3460 H   0  0
   -1.5520   -3.8443    7.1263 H   0  0
    0.8169   -6.4540    4.6553 H   0  0
   -0.6301    0.0296    4.6425 H   0  0
   -1.8360   -0.8191    3.6306 H   0  0
   -1.5182   -3.0061    5.0675 H   0  0
   -0.3006   -2.1622    6.0692 H   0  0
  1  5  2  0
  1  9  1  0
  2  6  1  0
  2  9  2  0
  3  7  2  0
  3 10  1  0
  4  8  1  0
  4 10  2  0
  5 11  1  0
  6 11  2  0
  7 12  1  0
  8 12  2  0
  9 16  1  0
 10 17  1  0
 11 23  1  0
 12 24  1  0
 13 14  1  0
 13 15  1  0
 13 20  2  0
 14 23  1  0
 15 24  1  0
 16 18  1  0
 16 21  2  0
 17 19  1  0
 17 22  2  0
  1 25  1  0
  2 26  1  0
  3 27  1  0
  4 28  1  0
  5 29  1  0
  6 30  1  0
  7 31  1  0
  8 32  1  0
 14 33  1  0
 14 34  1  0
 15 35  1  0
 15 36  1  0
M  CHG  4  16   1  17   1  18  -1  19  -1
M  END
> <Name>
BR010639

$$$$
BR010640
  SciTegic05062102053D

 38 39  0  0  0  0            999 V2000
   -1.4600    3.4641    3.3310 C   0  0
    0.4904    3.5778    1.9098 C   0  0
   -1.8820   -5.9487    7.3984 C   0  0
   -0.5545   -7.4152    6.0112 C   0  0
   -1.3829    2.0714    3.3254 C   0  0
    0.5676    2.1850    1.9042 C   0  0
   -1.2703   -4.8406    6.8123 C   0  0
    0.0572   -6.3070    5.4251 C   0  0
   -0.5233    4.2173    2.6231 C   0  0
   -1.5240   -7.2361    6.9978 C   0  0
   -0.3692    1.4319    2.6120 C   0  0
   -0.3008   -5.0197    5.8257 C   0  0
   -0.0338   -1.9162    3.9636 C   0  0
   -0.6053    5.7063    2.6295 C   0  0
   -2.1783   -8.4209    7.6239 C   0  0
   -0.7717   -0.6078    3.7669 C   0  0
   -0.4617   -2.7426    5.1591 C   0  0
    0.8582   -2.2842    3.2007 O   0  0
   -0.2934    0.0729    2.6077 O   0  0
    0.3011   -3.9273    5.2472 O   0  0
   -2.2532    3.9539    3.8894 H   0  0
    1.2246    4.1566    1.3552 H   0  0
   -2.6362   -5.7999    8.1664 H   0  0
   -0.2692   -8.4146    5.6929 H   0  0
   -2.1155    1.4901    3.8790 H   0  0
    1.3597    1.6929    1.3469 H   0  0
   -1.5537   -3.8402    7.1285 H   0  0
    0.8113   -6.4532    4.6569 H   0  0
   -0.0219    6.1175    3.4624 H   0  0
   -0.2210    6.1306    1.6928 H   0  0
   -1.6438    6.0479    2.7301 H   0  0
   -3.0769   -8.7028    7.0614 H   0  0
   -1.4997   -9.2834    7.6503 H   0  0
   -2.4687   -8.2136    8.6622 H   0  0
   -0.6297    0.0318    4.6424 H   0  0
   -1.8361   -0.8165    3.6308 H   0  0
   -1.5199   -3.0032    5.0686 H   0  0
   -0.3017   -2.1597    6.0700 H   0  0
  1  5  2  0
  1  9  1  0
  2  6  1  0
  2  9  2  0
  3  7  2  0
  3 10  1  0
  4  8  1  0
  4 10  2  0
  5 11  1  0
  6 11  2  0
  7 12  1  0
  8 12  2  0
  9 14  1  0
 10 15  1  0
 11 19  1  0
 12 20  1  0
 13 16  1  0
 13 17  1  0
 13 18  2  0
 16 19  1  0
 17 20  1  0
  1 21  1  0
  2 22  1  0
  3 23  1  0
  4 24  1  0
  5 25  1  0
  6 26  1  0
  7 27  1  0
  8 28  1  0
 14 29  1  0
 14 30  1  0
 14 31  1  0
 15 32  1  0
 15 33  1  0
 15 34  1  0
 16 35  1  0
 16 36  1  0
 17 37  1  0
 17 38  1  0
M  END
> <Name>
BR010640

$$$$
BR010641
  SciTegic05062102053D

 32 33  0  0  0  0            999 V2000
    2.0707   -2.3324    1.3824 C   0  0
    2.9480   -0.1815    0.7185 C   0  0
    7.7538   -7.5069    0.4397 C   0  0
    9.2768   -6.5885   -1.1956 C   0  0
    1.0807   -1.6973    2.1321 C   0  0
    1.9580    0.4537    1.4682 C   0  0
    8.2402   -8.7868    0.1739 C   0  0
    9.7633   -7.8684   -1.4613 C   0  0
    3.0044   -1.5745    0.6756 C   0  0
    8.2720   -6.4077   -0.2451 C   0  0
    1.0243   -0.3042    2.1750 C   0  0
    9.2450   -8.9676   -0.7766 C   0  0
    5.8581   -3.7096    0.0074 C   0  0
    4.4160   -3.4692    0.4048 C   0  0
    6.4459   -5.0410    0.4282 C   0  0
    6.5115   -2.8751   -0.6169 O   0  0
    3.9709   -2.1941   -0.0554 O   0  0
    7.7922   -5.1460    0.0163 O   0  0
   -0.1962    0.4796    3.1010 Cl  0  0
    9.8443  -10.5469   -1.1057 Cl  0  0
    2.1092   -3.4177    1.3536 H   0  0
    3.6727    0.4143    0.1705 H   0  0
    6.9708   -7.3731    1.1808 H   0  0
    9.6841   -5.7362   -1.7324 H   0  0
    0.3601   -2.3004    2.6789 H   0  0
    1.9265    1.5401    1.4934 H   0  0
    7.8264   -9.6346    0.7143 H   0  0
   10.5458   -7.9947   -2.2054 H   0  0
    4.3208   -3.5108    1.4933 H   0  0
    3.7883   -4.2397   -0.0506 H   0  0
    5.8699   -5.8568   -0.0174 H   0  0
    6.4108   -5.1168    1.5182 H   0  0
  1  5  2  0
  1  9  1  0
  2  6  1  0
  2  9  2  0
  3  7  1  0
  3 10  2  0
  4  8  2  0
  4 10  1  0
  5 11  1  0
  6 11  2  0
  7 12  2  0
  8 12  1  0
  9 17  1  0
 10 18  1  0
 11 19  1  0
 12 20  1  0
 13 14  1  0
 13 15  1  0
 13 16  2  0
 14 17  1  0
 15 18  1  0
  1 21  1  0
  2 22  1  0
  3 23  1  0
  4 24  1  0
  5 25  1  0
  6 26  1  0
  7 27  1  0
  8 28  1  0
 14 29  1  0
 14 30  1  0
 15 31  1  0
 15 32  1  0
M  END
> <Name>
BR010641

$$$$
BR010642
  SciTegic05062102053D

 54 56  0  0  1  0            999 V2000
    1.8615   -0.9683    3.7277 C   0  0
    6.5366    2.6545   -0.7375 C   0  0
   -0.6628   -2.5590   -5.8214 C   0  0
   -0.7786   -0.3424   -6.7755 C   0  0
    2.7926   -0.2797    4.5053 C   0  0
    7.1875    1.9560    0.2794 C   0  0
    1.3709   -0.3937    2.5551 C   0  0
    5.2905    2.2233   -1.1928 C   0  0
   -0.6808   -2.0084   -4.5400 C   0  0
   -0.7967    0.2082   -5.4940 C   0  0
    2.7423    1.5582    2.9379 C   0  0
    5.3464    0.3951    0.3857 C   0  0
   -0.7116   -1.7260   -6.9392 C   0  0
    3.2329    0.9835    4.1104 C   0  0
    6.5924    0.8263    0.8410 C   0  0
    1.8113    0.8695    2.1603 C   0  0
    4.6955    1.0936   -0.6312 C   0  0
   -0.7478   -0.6248   -4.3763 C   0  0
   -0.6916   -2.3143   -8.3095 C   0  0
    0.9523    0.5385   -0.0326 C   0  0
    2.5900    1.6733   -1.5727 C   0  0
    1.1440    1.2331   -1.3744 C   0  0  1  0  0  0
    4.1812    1.6843    4.9018 N   0  3
    7.2549    0.1156    1.8767 N   0  3
    4.6101    1.1491    5.9525 O   0  5
    8.3748    0.5208    2.2718 O   0  5
    4.5643    2.8192    4.5284 O   0  0
    6.7021   -0.8977    2.3684 O   0  0
   -1.4265    1.3597   -2.8843 O   0  0
   -1.2844   -0.9506   -1.8617 O   0  0
    1.3292    1.4330    1.0089 O   0  0
    3.4722    0.6709   -1.0786 O   0  0
    0.8022    0.3036   -2.4052 O   0  0
   -0.7729    0.0720   -2.7547 S   0  0
    1.5182   -1.9517    4.0354 H   0  0
    7.0001    3.5338   -1.1752 H   0  0
   -0.6101   -3.6380   -5.9392 H   0  0
   -0.8166    0.3144   -7.6406 H   0  0
    3.1671   -0.7391    5.4170 H   0  0
    8.1584    2.3029    0.6252 H   0  0
    0.6461   -0.9350    1.9533 H   0  0
    4.7881    2.7715   -1.9850 H   0  0
   -0.6418   -2.6664   -3.6759 H   0  0
   -0.8487    1.2876   -5.3779 H   0  0
    3.0805    2.5433    2.6243 H   0  0
    4.8769   -0.4855    0.8184 H   0  0
   -1.7134   -2.5160   -8.6536 H   0  0
   -0.2102   -1.6371   -9.0269 H   0  0
   -0.1251   -3.2545   -8.3311 H   0  0
    1.5825   -0.3536    0.0460 H   0  0
   -0.0952    0.2611    0.1216 H   0  0
    2.8040    2.6052   -1.0402 H   0  0
    2.8179    1.8125   -2.6342 H   0  0
    0.4552    2.0798   -1.4720 H   0  0
  1  5  1  0
  1  7  2  0
  2  6  2  0
  2  8  1  0
  3  9  1  0
  3 13  2  0
  4 10  2  0
  4 13  1  0
  5 14  2  0
  6 15  1  0
  7 16  1  0
  8 17  2  0
  9 18  2  0
 10 18  1  0
 11 14  1  0
 11 16  2  0
 12 15  2  0
 12 17  1  0
 13 19  1  0
 14 23  1  0
 15 24  1  0
 16 31  1  0
 17 32  1  0
 18 34  1  0
 20 22  1  0
 20 31  1  0
 21 22  1  0
 21 32  1  0
 22 33  1  0
 23 25  1  0
 23 27  2  0
 24 26  1  0
 24 28  2  0
 29 34  2  0
 30 34  2  0
 33 34  1  0
  1 35  1  0
  2 36  1  0
  3 37  1  0
  4 38  1  0
  5 39  1  0
  6 40  1  0
  7 41  1  0
  8 42  1  0
  9 43  1  0
 10 44  1  0
 11 45  1  0
 12 46  1  0
 19 47  1  0
 19 48  1  0
 19 49  1  0
 20 50  1  0
 20 51  1  0
 21 52  1  0
 21 53  1  0
 22 54  1  0
M  CHG  4  23   1  24   1  25  -1  26  -1
M  END
> <Name>
BR010642

$$$$
BR010643
  SciTegic05062102053D

 54 56  0  0  0  0            999 V2000
    6.6564    3.8679   -1.6768 C   0  0
    5.2829    5.3880   -0.3962 C   0  0
    1.7901   -0.7831    3.8135 C   0  0
    2.8684    1.3364    4.2400 C   0  0
    1.8891   -2.0424   -5.8717 C   0  0
    4.0600   -2.4795   -4.9056 C   0  0
    1.3103   -0.2945    2.5983 C   0  0
    2.3887    1.8250    3.0248 C   0  0
    1.4789   -1.4454   -4.6798 C   0  0
    3.6497   -1.8824   -3.7136 C   0  0
    5.5089    3.2664   -2.1936 C   0  0
    4.1354    4.7865   -0.9130 C   0  0
    6.5434    4.9287   -0.7780 C   0  0
    2.5691    0.0324    4.6344 C   0  0
    3.1797   -2.5596   -5.9846 C   0  0
    1.6096    1.0095    2.2039 C   0  0
    2.3591   -1.3653   -3.6007 C   0  0
    4.2484    3.7257   -1.8117 C   0  0
    7.7701    5.5715   -0.2247 C   0  0
    0.9523    0.5385   -0.0326 C   0  0
    0.9856    0.2573   -2.5348 C   0  0
    1.1440    1.2331   -1.3744 C   0  0
    3.0574   -0.4646    5.8717 N   0  3
    3.5976   -3.1676   -7.1979 N   0  3
    2.7766   -1.6405    6.2079 O   0  5
    2.7903   -3.2296   -8.1565 O   0  5
    3.7566    0.2855    6.5947 O   0  0
    4.7628   -3.6261   -7.2782 O   0  0
    1.7531    3.9705   -2.3936 O   0  0
    3.1704    2.3538   -3.7282 O   0  0
    1.1387    1.4891    1.0107 O   0  0
    1.9563   -0.7791   -2.4305 O   0  0
    2.4671    1.7733   -1.4064 O   0  0
    2.7962    2.9662   -2.4673 S   0  0
    7.6342    3.5031   -1.9798 H   0  0
    5.1852    6.2136    0.3038 H   0  0
    1.5497   -1.8015    4.1089 H   0  0
    3.4740    1.9830    4.8703 H   0  0
    1.1932   -2.0979   -6.7052 H   0  0
    5.0685   -2.8790   -4.9797 H   0  0
    0.7042   -0.9346    1.9630 H   0  0
    2.6249    2.8418    2.7232 H   0  0
    0.4724   -1.0440   -4.5979 H   0  0
    4.3399   -1.8234   -2.8764 H   0  0
    5.6082    2.4403   -2.8928 H   0  0
    3.1583    5.1520   -0.6084 H   0  0
    8.0895    6.4011   -0.8672 H   0  0
    7.5940    5.9620    0.7860 H   0  0
    8.5965    4.8528   -0.1479 H   0  0
    1.6854   -0.2628    0.1078 H   0  0
   -0.0587    0.1293    0.0585 H   0  0
    1.1228    0.7539   -3.5004 H   0  0
   -0.0004   -0.2179   -2.5189 H   0  0
    0.4552    2.0798   -1.4720 H   0  0
  1 11  1  0
  1 13  2  0
  2 12  2  0
  2 13  1  0
  3  7  2  0
  3 14  1  0
  4  8  1  0
  4 14  2  0
  5  9  2  0
  5 15  1  0
  6 10  1  0
  6 15  2  0
  7 16  1  0
  8 16  2  0
  9 17  1  0
 10 17  2  0
 11 18  2  0
 12 18  1  0
 13 19  1  0
 14 23  1  0
 15 24  1  0
 16 31  1  0
 17 32  1  0
 18 34  1  0
 20 22  1  0
 20 31  1  0
 21 22  1  0
 21 32  1  0
 22 33  1  0
 23 25  1  0
 23 27  2  0
 24 26  1  0
 24 28  2  0
 29 34  2  0
 30 34  2  0
 33 34  1  0
  1 35  1  0
  2 36  1  0
  3 37  1  0
  4 38  1  0
  5 39  1  0
  6 40  1  0
  7 41  1  0
  8 42  1  0
  9 43  1  0
 10 44  1  0
 11 45  1  0
 12 46  1  0
 19 47  1  0
 19 48  1  0
 19 49  1  0
 20 50  1  0
 20 51  1  0
 21 52  1  0
 21 53  1  0
 22 54  1  0
M  CHG  4  23   1  24   1  25  -1  26  -1
M  END
> <Name>
BR010643

$$$$
BR010644
  SciTegic05062102053D

 56 58  0  0  0  0            999 V2000
    1.7909   -0.7837    3.8128 C   0  0
    2.8704    1.3353    4.2390 C   0  0
    1.8893   -2.0412   -5.8721 C   0  0
    4.0606   -2.4774   -4.9067 C   0  0
    6.6564    3.8679   -1.6768 C   0  0
    5.2829    5.3880   -0.3962 C   0  0
    1.3102   -0.2945    2.5982 C   0  0
    2.3897    1.8245    3.0243 C   0  0
    1.4787   -1.4453   -4.6797 C   0  0
    3.6501   -1.8814   -3.7142 C   0  0
    5.5089    3.2664   -2.1936 C   0  0
    4.1354    4.7865   -0.9130 C   0  0
    2.5709    0.0313    4.6332 C   0  0
    3.1802   -2.5573   -5.9856 C   0  0
    6.5434    4.9287   -0.7780 C   0  0
    1.6096    1.0095    2.2039 C   0  0
    2.3591   -1.3653   -3.6007 C   0  0
    4.2484    3.7257   -1.8117 C   0  0
    3.0854   -0.4917    5.9316 C   0  0
    3.6194   -3.1939   -7.2606 C   0  0
    7.7701    5.5715   -0.2247 C   0  0
    0.9523    0.5385   -0.0326 C   0  0
    0.9856    0.2573   -2.5348 C   0  0
    1.1440    1.2331   -1.3744 C   0  0
    1.7531    3.9705   -2.3936 O   0  0
    3.1704    2.3538   -3.7282 O   0  0
    1.1387    1.4891    1.0107 O   0  0
    1.9563   -0.7791   -2.4305 O   0  0
    2.4671    1.7733   -1.4064 O   0  0
    2.7962    2.9662   -2.4673 S   0  0
    1.5527   -1.8008    4.1120 H   0  0
    3.4774    1.9775    4.8720 H   0  0
    1.1967   -2.0992   -6.7075 H   0  0
    5.0684   -2.8769   -4.9860 H   0  0
    7.6342    3.5031   -1.9798 H   0  0
    5.1852    6.2136    0.3038 H   0  0
    0.7032   -0.9344    1.9632 H   0  0
    2.6267    2.8409    2.7228 H   0  0
    0.4718   -1.0448   -4.5975 H   0  0
    4.3406   -1.8219   -2.8776 H   0  0
    5.6082    2.4403   -2.8928 H   0  0
    3.1583    5.1520   -0.6084 H   0  0
    4.0661   -0.9629    5.7920 H   0  0
    3.1878    0.3118    6.6725 H   0  0
    2.4007   -1.2345    6.3615 H   0  0
    4.0664   -2.4460   -7.9270 H   0  0
    4.3600   -3.9834   -7.0775 H   0  0
    2.7759   -3.6648   -7.7822 H   0  0
    8.0895    6.4011   -0.8672 H   0  0
    7.5940    5.9620    0.7860 H   0  0
    8.5965    4.8528   -0.1479 H   0  0
    1.6854   -0.2628    0.1078 H   0  0
   -0.0587    0.1293    0.0585 H   0  0
    1.1228    0.7539   -3.5004 H   0  0
   -0.0004   -0.2179   -2.5189 H   0  0
    0.4552    2.0798   -1.4720 H   0  0
  1  7  2  0
  1 13  1  0
  2  8  1  0
  2 13  2  0
  3  9  1  0
  3 14  2  0
  4 10  2  0
  4 14  1  0
  5 11  2  0
  5 15  1  0
  6 12  1  0
  6 15  2  0
  7 16  1  0
  8 16  2  0
  9 17  2  0
 10 17  1  0
 11 18  1  0
 12 18  2  0
 13 19  1  0
 14 20  1  0
 15 21  1  0
 16 27  1  0
 17 28  1  0
 18 30  1  0
 22 24  1  0
 22 27  1  0
 23 24  1  0
 23 28  1  0
 24 29  1  0
 25 30  2  0
 26 30  2  0
 29 30  1  0
  1 31  1  0
  2 32  1  0
  3 33  1  0
  4 34  1  0
  5 35  1  0
  6 36  1  0
  7 37  1  0
  8 38  1  0
  9 39  1  0
 10 40  1  0
 11 41  1  0
 12 42  1  0
 19 43  1  0
 19 44  1  0
 19 45  1  0
 20 46  1  0
 20 47  1  0
 20 48  1  0
 21 49  1  0
 21 50  1  0
 21 51  1  0
 22 52  1  0
 22 53  1  0
 23 54  1  0
 23 55  1  0
 24 56  1  0
M  END
> <Name>
BR010644

$$$$
BR010645
  SciTegic05062102053D

 50 52  0  0  0  0            999 V2000
    6.6564    3.8679   -1.6768 C   0  0
    5.2829    5.3880   -0.3962 C   0  0
    1.3105   -0.2945    2.5986 C   0  0
    2.3891    1.8250    3.0244 C   0  0
    1.4790   -1.4455   -4.6800 C   0  0
    3.6499   -1.8819   -3.7136 C   0  0
    5.5089    3.2664   -2.1936 C   0  0
    4.1354    4.7865   -0.9130 C   0  0
    1.7908   -0.7831    3.8135 C   0  0
    2.8694    1.3365    4.2394 C   0  0
    1.8897   -2.0421   -5.8720 C   0  0
    4.0606   -2.4785   -4.9056 C   0  0
    6.5434    4.9287   -0.7780 C   0  0
    1.6096    1.0095    2.2039 C   0  0
    2.3591   -1.3653   -3.6007 C   0  0
    4.2484    3.7257   -1.8117 C   0  0
    2.5702    0.0324    4.6340 C   0  0
    3.1805   -2.5586   -5.9848 C   0  0
    7.7701    5.5715   -0.2247 C   0  0
    0.9523    0.5385   -0.0326 C   0  0
    0.9856    0.2573   -2.5348 C   0  0
    1.1440    1.2331   -1.3744 C   0  0
    1.7531    3.9705   -2.3936 O   0  0
    3.1704    2.3538   -3.7282 O   0  0
    1.1387    1.4891    1.0107 O   0  0
    1.9563   -0.7791   -2.4305 O   0  0
    2.4671    1.7733   -1.4064 O   0  0
    2.7962    2.9662   -2.4673 S   0  0
    3.1641   -0.5706    6.1324 Cl  0  0
    3.6879   -3.2935   -7.4559 Cl  0  0
    7.6342    3.5031   -1.9798 H   0  0
    5.1852    6.2136    0.3038 H   0  0
    0.7043   -0.9351    1.9641 H   0  0
    2.6258    2.8414    2.7222 H   0  0
    0.4725   -1.0448   -4.5989 H   0  0
    4.3401   -1.8220   -2.8765 H   0  0
    5.6082    2.4403   -2.8928 H   0  0
    3.1583    5.1520   -0.6084 H   0  0
    1.5507   -1.8017    4.1081 H   0  0
    3.4765    1.9828    4.8683 H   0  0
    1.1937   -2.0968   -6.7054 H   0  0
    5.0698   -2.8760   -4.9798 H   0  0
    8.0895    6.4011   -0.8672 H   0  0
    7.5940    5.9620    0.7860 H   0  0
    8.5965    4.8528   -0.1479 H   0  0
    1.6854   -0.2628    0.1078 H   0  0
   -0.0587    0.1293    0.0585 H   0  0
    1.1228    0.7539   -3.5004 H   0  0
   -0.0004   -0.2179   -2.5189 H   0  0
    0.4552    2.0798   -1.4720 H   0  0
  1  7  2  0
  1 13  1  0
  2  8  1  0
  2 13  2  0
  3  9  2  0
  3 14  1  0
  4 10  1  0
  4 14  2  0
  5 11  2  0
  5 15  1  0
  6 12  1  0
  6 15  2  0
  7 16  1  0
  8 16  2  0
  9 17  1  0
 10 17  2  0
 11 18  1  0
 12 18  2  0
 13 19  1  0
 14 25  1  0
 15 26  1  0
 16 28  1  0
 17 29  1  0
 18 30  1  0
 20 22  1  0
 20 25  1  0
 21 22  1  0
 21 26  1  0
 22 27  1  0
 23 28  2  0
 24 28  2  0
 27 28  1  0
  1 31  1  0
  2 32  1  0
  3 33  1  0
  4 34  1  0
  5 35  1  0
  6 36  1  0
  7 37  1  0
  8 38  1  0
  9 39  1  0
 10 40  1  0
 11 41  1  0
 12 42  1  0
 19 43  1  0
 19 44  1  0
 19 45  1  0
 20 46  1  0
 20 47  1  0
 21 48  1  0
 21 49  1  0
 22 50  1  0
M  END
> <Name>
BR010645

$$$$
BR010646
  SciTegic05062102053D

 34 35  0  0  0  0            999 V2000
    0.3883   -1.3750    1.9070 C   0  0
    0.3893   -1.9741   -4.0860 C   0  0
   -0.1732   -2.3635    2.7151 C   0  0
    0.2570   -3.2502   -4.6334 C   0  0
    1.0492   -3.0593    0.3059 C   0  0
   -1.4142   -2.4462   -2.5493 C   0  0
    0.9995   -1.7228    0.7023 C   0  0
   -0.4462   -1.5721   -3.0439 C   0  0
   -0.1235   -3.6999    2.3187 C   0  0
   -0.7110   -4.1243   -4.1388 C   0  0
    0.4878   -4.0478    1.1141 C   0  0
   -1.5466   -3.7223   -3.0967 C   0  0
    0.9523    0.5385   -0.0326 C   0  0
    0.9856    0.2573   -2.5348 C   0  0
    1.1440    1.2331   -1.3744 C   0  0
    2.4671    1.7733   -1.4064 O   0  0
    1.5511   -0.7519   -0.0905 O   0  0
   -0.3162   -0.3189   -2.5072 O   0  0
   -0.8365   -4.8781    3.3633 Cl  0  0
   -0.8259   -5.6915   -4.8588 Cl  0  0
    0.5812   -5.6855    0.5684 Cl  0  0
   -2.7644   -4.7592   -2.4409 Cl  0  0
    0.3466   -0.3354    2.2211 H   0  0
    1.1453   -1.2974   -4.4755 H   0  0
   -0.6454   -2.0749    3.6508 H   0  0
    0.9162   -3.5471   -5.4452 H   0  0
    1.5285   -3.3195   -0.6353 H   0  0
   -2.0606   -2.1224   -1.7365 H   0  0
   -0.1100    0.4061    0.1976 H   0  0
    1.4343    1.0997    0.7741 H   0  0
    1.7168   -0.5552   -2.4807 H   0  0
    1.0950    0.7675   -3.4970 H   0  0
    0.4552    2.0798   -1.4720 H   0  0
    3.0699    1.0224   -1.3025 H   0  0
  1  3  1  0
  1  7  2  0
  2  4  1  0
  2  8  2  0
  3  9  2  0
  4 10  2  0
  5  7  1  0
  5 11  2  0
  6  8  1  0
  6 12  2  0
  7 17  1  0
  8 18  1  0
  9 11  1  0
  9 19  1  0
 10 12  1  0
 10 20  1  0
 11 21  1  0
 12 22  1  0
 13 15  1  0
 13 17  1  0
 14 15  1  0
 14 18  1  0
 15 16  1  0
  1 23  1  0
  2 24  1  0
  3 25  1  0
  4 26  1  0
  5 27  1  0
  6 28  1  0
 13 29  1  0
 13 30  1  0
 14 31  1  0
 14 32  1  0
 15 33  1  0
 16 34  1  0
M  END
> <Name>
BR010646

$$$$
BR010647
  SciTegic05062102053D

 40 41  0  0  1  0            999 V2000
    1.3710   -0.3938    2.5553 C   0  0
    5.2907    2.2233   -1.1927 C   0  0
    1.8612   -0.9680    3.7281 C   0  0
    6.5369    2.6541   -0.7378 C   0  0
    2.7417    1.5585    2.9382 C   0  0
    5.3467    0.3946    0.3852 C   0  0
    1.8113    0.8695    2.1603 C   0  0
    4.6955    1.0936   -0.6312 C   0  0
    2.7917   -0.2790    4.5060 C   0  0
    7.1880    1.9551    0.2786 C   0  0
    3.2319    0.9843    4.1110 C   0  0
    6.5929    0.8254    0.8401 C   0  0
   -0.5231   -0.6090   -4.3703 C   0  0
    0.9523    0.5385   -0.0326 C   0  0
    2.5900    1.6733   -1.5727 C   0  0
    1.1440    1.2331   -1.3744 C   0  0  1  0  0  0
   -1.4270    1.3589   -2.9003 O   0  0
   -1.3096   -0.9668   -1.8995 O   0  0
    1.3292    1.4330    1.0089 O   0  0
    3.4722    0.6709   -1.0786 O   0  0
    0.8022    0.3036   -2.4052 O   0  0
   -0.7729    0.0747   -2.7518 S   0  0
    3.3611   -1.0431    5.9480 Cl  0  0
    8.7299    2.5381    0.7987 Cl  0  0
    4.3829    1.8876    5.0318 Cl  0  0
    7.3493   -0.0827    2.1018 Cl  0  0
    0.6462   -0.9354    1.9533 H   0  0
    4.7881    2.7720   -1.9849 H   0  0
    1.5073   -1.9532    4.0213 H   0  0
    6.9864    3.5363   -1.1866 H   0  0
    3.0782    2.5432    2.6209 H   0  0
    4.8736   -0.4851    0.8160 H   0  0
   -0.0304   -1.5767   -4.2630 H   0  0
   -1.4967   -0.7265   -4.8485 H   0  0
    0.1033    0.0779   -4.9413 H   0  0
    1.5825   -0.3536    0.0460 H   0  0
   -0.0952    0.2611    0.1216 H   0  0
    2.8040    2.6052   -1.0402 H   0  0
    2.8179    1.8125   -2.6342 H   0  0
    0.4552    2.0798   -1.4720 H   0  0
  1  3  1  0
  1  7  2  0
  2  4  2  0
  2  8  1  0
  3  9  2  0
  4 10  1  0
  5  7  1  0
  5 11  2  0
  6  8  2  0
  6 12  1  0
  7 19  1  0
  8 20  1  0
  9 11  1  0
  9 23  1  0
 10 12  2  0
 10 24  1  0
 11 25  1  0
 12 26  1  0
 13 22  1  0
 14 16  1  0
 14 19  1  0
 15 16  1  0
 15 20  1  0
 16 21  1  0
 17 22  2  0
 18 22  2  0
 21 22  1  0
  1 27  1  0
  2 28  1  0
  3 29  1  0
  4 30  1  0
  5 31  1  0
  6 32  1  0
 13 33  1  0
 13 34  1  0
 13 35  1  0
 14 36  1  0
 14 37  1  0
 15 38  1  0
 15 39  1  0
 16 40  1  0
M  END
> <Name>
BR010647

$$$$
BR010648
  SciTegic05062102053D

 35 36  0  0  0  0            999 V2000
   -1.7290    3.4467   -1.4319 C   0  0
   -2.9723   -2.4238   -0.9350 C   0  0
   -2.5059    4.2788   -2.2379 C   0  0
   -4.2650   -2.8502   -1.2395 C   0  0
   -3.6811    2.1173   -0.9227 C   0  0
   -2.9557   -1.0531   -2.9244 C   0  0
   -2.3166    2.3659   -0.7743 C   0  0
   -2.3176   -1.5252   -1.7773 C   0  0
   -3.8704    4.0301   -2.3864 C   0  0
   -4.9030   -2.3781   -2.3865 C   0  0
   -4.4580    2.9493   -1.7288 C   0  0
   -4.2483   -1.4795   -3.2290 C   0  0
   -0.1849    1.4028   -0.3454 C   0  0
   -0.7007   -1.0508   -0.0992 C   0  0
    0.3384    0.0448    0.1116 C   0  0
    2.4052   -1.2624    2.3278 N   0  5
    0.6364    0.1298    1.5505 N   0  0
    1.5589   -0.5982    1.9486 N   0  3
   -1.5533    1.5496    0.0175 O   0  0
   -1.0479   -1.1073   -1.4780 O   0  0
   -4.7792    5.0969   -3.3982 Cl  0  0
   -6.5041   -2.9437   -2.7097 Cl  0  0
   -6.1426    2.5893   -1.8729 Cl  0  0
   -4.9856   -0.8586   -4.6641 Cl  0  0
   -0.6665    3.6455   -1.3200 H   0  0
   -2.4803   -2.7952   -0.0399 H   0  0
   -2.0320    5.1167   -2.7430 H   0  0
   -4.7605   -3.5509   -0.5723 H   0  0
   -4.1291    1.2718   -0.4053 H   0  0
   -2.4359   -0.3527   -3.5744 H   0  0
   -0.1112    1.5164   -1.4321 H   0  0
    0.3738    2.2201    0.1224 H   0  0
   -1.6124   -0.8349    0.4671 H   0  0
   -0.3181   -2.0317    0.2031 H   0  0
    1.2713   -0.2043   -0.4073 H   0  0
  1  3  1  0
  1  7  2  0
  2  4  1  0
  2  8  2  0
  3  9  2  0
  4 10  2  0
  5  7  1  0
  5 11  2  0
  6  8  1  0
  6 12  2  0
  7 19  1  0
  8 20  1  0
  9 11  1  0
  9 21  1  0
 10 12  1  0
 10 22  1  0
 11 23  1  0
 12 24  1  0
 13 15  1  0
 13 19  1  0
 14 15  1  0
 14 20  1  0
 15 17  1  0
 16 18  2  0
 17 18  2  0
  1 25  1  0
  2 26  1  0
  3 27  1  0
  4 28  1  0
  5 29  1  0
  6 30  1  0
 13 31  1  0
 13 32  1  0
 14 33  1  0
 14 34  1  0
 15 35  1  0
M  CHG  2  16  -1  18   1
M  END
> <Name>
BR010648

$$$$
BR010649
  SciTegic05062102053D

 36 37  0  0  0  0            999 V2000
   -1.6528   -2.1619   -1.0285 C   0  0
    5.1806    0.8173    0.3843 C   0  0
   -2.4017   -3.0165   -1.8373 C   0  0
    6.5278    0.8550    0.0248 C   0  0
   -2.1906   -3.5151    0.8994 C   0  0
    5.7931    0.0829    2.6029 C   0  0
   -1.5472   -2.4112    0.3399 C   0  0
    4.8133    0.4313    1.6734 C   0  0
   -3.0451   -4.1204   -1.2778 C   0  0
    7.5077    0.5065    0.9543 C   0  0
   -2.9396   -4.3697    0.0906 C   0  0
    7.1404    0.1205    2.2434 C   0  0
    0.2932   -0.9161    0.5231 C   0  0
    2.5589    0.1059    0.9896 C   0  0
    1.3499   -0.6110    1.5772 C   0  0
    1.8138   -1.9068    2.1622 N   0  3
   -0.8118   -1.5711    1.1340 O   0  0
    3.4898    0.3941    2.0258 O   0  0
   -3.9582   -5.1417   -2.3319 Cl  0  0
    9.1592    0.5728    0.4486 Cl  0  0
   -3.7131   -5.7204    0.8427 Cl  0  0
    8.3073   -0.3225    3.4395 Cl  0  0
   -1.1537   -1.3034   -1.4700 H   0  0
    4.4217    1.0898   -0.3442 H   0  0
   -2.4737   -2.8074   -2.9016 H   0  0
    6.7965    1.1579   -0.9841 H   0  0
   -2.1017   -3.7000    1.9677 H   0  0
    5.4956   -0.2168    3.6054 H   0  0
    0.6870   -1.5576   -0.2728 H   0  0
   -0.0761    0.0112    0.0731 H   0  0
    2.2566    1.0570    0.5389 H   0  0
    3.0582   -0.4995    0.2254 H   0  0
    0.9255   -0.0554    2.4205 H   0  0
    1.2398   -2.1579    2.9688 H   0  0
    2.7863   -1.8308    2.4655 H   0  0
    1.7460   -2.6538    1.4688 H   0  0
  1  3  1  0
  1  7  2  0
  2  4  1  0
  2  8  2  0
  3  9  2  0
  4 10  2  0
  5  7  1  0
  5 11  2  0
  6  8  1  0
  6 12  2  0
  7 17  1  0
  8 18  1  0
  9 11  1  0
  9 19  1  0
 10 12  1  0
 10 20  1  0
 11 21  1  0
 12 22  1  0
 13 15  1  0
 13 17  1  0
 14 15  1  0
 14 18  1  0
 15 16  1  0
  1 23  1  0
  2 24  1  0
  3 25  1  0
  4 26  1  0
  5 27  1  0
  6 28  1  0
 13 29  1  0
 13 30  1  0
 14 31  1  0
 14 32  1  0
 15 33  1  0
 16 34  1  0
 16 35  1  0
 16 36  1  0
M  CHG  1  16   1
M  END
> <Name>
BR010649

$$$$
BR010650
  SciTegic05062102053D

 39 40  0  0  0  0            999 V2000
   -0.3874    2.2573   -5.7622 C   0  0
    1.4442    0.8859   -6.5378 C   0  0
    1.1899   -4.6032   -3.9485 C   0  0
   -0.8782   -3.8225   -4.9233 C   0  0
   -0.0207    2.0000   -4.4413 C   0  0
    1.8109    0.6286   -5.2169 C   0  0
    1.0472   -3.6837   -2.9094 C   0  0
   -1.0210   -2.9031   -3.8842 C   0  0
    0.3450    1.7002   -6.8105 C   0  0
    0.2272   -4.6726   -4.9555 C   0  0
    1.0785    1.1857   -4.1686 C   0  0
   -0.0582   -2.8337   -2.8772 C   0  0
   -0.0466    1.9757   -8.2228 C   0  0
    0.3793   -5.6560   -6.0662 C   0  0
    0.7769   -0.0127   -0.7752 C   0  0
    0.3977    0.9315   -1.9041 C   0  0
    0.9970   -1.4335   -1.2704 C   0  0
    1.4394    0.9340   -2.8703 O   0  0
   -0.1989   -1.9311   -1.8554 O   0  0
   -1.2452    2.8927   -5.9654 H   0  0
    2.0207    0.4475   -7.3484 H   0  0
    2.0543   -5.2615   -3.9656 H   0  0
   -1.6333   -3.8695   -5.7038 H   0  0
   -0.5952    2.4371   -3.6288 H   0  0
    2.6682   -0.0061   -5.0111 H   0  0
    1.8005   -3.6347   -2.1276 H   0  0
   -1.8843   -2.2440   -3.8646 H   0  0
    0.4670    2.8710   -8.5940 H   0  0
    0.2068    1.1324   -8.8784 H   0  0
   -1.1294    2.1334   -8.3127 H   0  0
   -0.1030   -6.6057   -5.8044 H   0  0
   -0.0712   -5.2815   -6.9947 H   0  0
    1.4376   -5.8515   -6.2833 H   0  0
    1.6790    0.3515   -0.2672 H   0  0
    0.0000    0.0000    0.0000 H   0  0
   -0.5277    0.6070   -2.3907 H   0  0
    0.2656    1.9523   -1.5317 H   0  0
    1.2688   -2.0967   -0.4434 H   0  0
    1.7936   -1.4755   -2.0202 H   0  0
  1  5  1  0
  1  9  2  0
  2  6  2  0
  2  9  1  0
  3  7  1  0
  3 10  2  0
  4  8  2  0
  4 10  1  0
  5 11  2  0
  6 11  1  0
  7 12  2  0
  8 12  1  0
  9 13  1  0
 10 14  1  0
 11 18  1  0
 12 19  1  0
 15 16  1  0
 15 17  1  0
 16 18  1  0
 17 19  1  0
  1 20  1  0
  2 21  1  0
  3 22  1  0
  4 23  1  0
  5 24  1  0
  6 25  1  0
  7 26  1  0
  8 27  1  0
 13 28  1  0
 13 29  1  0
 13 30  1  0
 14 31  1  0
 14 32  1  0
 14 33  1  0
 15 34  1  0
 15 35  1  0
 16 36  1  0
 16 37  1  0
 17 38  1  0
 17 39  1  0
M  END
> <Name>
BR010650

$$$$
BR010651
  SciTegic05062102053D

 20 20  0  0  0  0            999 V2000
    4.0245   -2.2212   -0.0817 C   0  0
    1.8851   -1.0363   -0.1124 C   0  0
    2.8783   -1.6520    2.0022 C   0  0
    0.8066   -0.4630    0.5610 C   0  0
    1.7997   -1.0786    2.6757 C   0  0
    2.9210   -1.6309    0.6081 C   0  0
    0.7638   -0.4841    1.9551 C   0  0
   -0.5315    0.1640    4.0108 C   0  0
   -1.8254    0.8667    4.3372 C   0  0
    4.9207   -2.7006   -0.6419 N   0  0
   -0.3153    0.0891    2.6284 N   0  0
    0.1947   -0.2613    4.9034 O   0  0
    1.9034   -1.0129   -1.1996 H   0  0
    3.6781   -2.1124    2.5776 H   0  0
    0.0051   -0.0017   -0.0105 H   0  0
    1.7770   -1.1007    3.7623 H   0  0
   -2.6396    0.1383    4.3884 H   0  0
   -2.0547    1.6004    3.5590 H   0  0
   -1.7369    1.3853    5.2964 H   0  0
   -1.0455    0.5113    2.0431 H   0  0
  1  6  1  0
  1 10  3  0
  2  4  1  0
  2  6  2  0
  3  5  2  0
  3  6  1  0
  4  7  2  0
  5  7  1  0
  7 11  1  0
  8  9  1  0
  8 11  1  0
  8 12  2  0
  2 13  1  0
  3 14  1  0
  4 15  1  0
  5 16  1  0
  9 17  1  0
  9 18  1  0
  9 19  1  0
 11 20  1  0
M  END
> <Name>
BR010651

$$$$
BR010652
  SciTegic05062102053D

 17 17  0  0  0  0            999 V2000
    4.0255   -2.2175   -0.0833 C   0  0
    1.8851   -1.0363   -0.1124 C   0  0
    0.8066   -0.4630    0.5610 C   0  0
    2.8783   -1.6520    2.0022 C   0  0
    2.9210   -1.6309    0.6081 C   0  0
    0.7638   -0.4841    1.9551 C   0  0
    1.7997   -1.0786    2.6757 C   0  0
    4.9224   -2.6939   -0.6448 N   0  0
   -0.3399    0.1040    2.6138 N   0  0
    1.7810   -1.1128    4.0984 N   0  3
    2.3031   -0.1666    4.7329 O   0  5
    1.2427   -2.0879    4.6727 O   0  0
    1.9049   -1.0111   -1.1994 H   0  0
    0.0055   -0.0023   -0.0115 H   0  0
    3.6864   -2.1153    2.5660 H   0  0
   -1.0406    0.5627    2.0703 H   0  0
   -0.3499    0.1319    3.6118 H   0  0
  1  5  1  0
  1  8  3  0
  2  3  2  0
  2  5  1  0
  3  6  1  0
  4  5  2  0
  4  7  1  0
  6  7  2  0
  6  9  1  0
  7 10  1  0
 10 11  1  0
 10 12  2  0
  2 13  1  0
  3 14  1  0
  4 15  1  0
  9 16  1  0
  9 17  1  0
M  CHG  2  10   1  11  -1
M  END
> <Name>
BR010652

$$$$
BR010653
  SciTegic05062102053D

 22 22  0  0  0  0            999 V2000
    1.8851   -1.0363   -0.1124 C   0  0
    0.8066   -0.4630    0.5610 C   0  0
    2.8783   -1.6520    2.0022 C   0  0
    2.9210   -1.6309    0.6081 C   0  0
    0.7638   -0.4841    1.9551 C   0  0
    1.7997   -1.0786    2.6757 C   0  0
    4.0390   -2.2251   -0.0902 C   0  0
   -0.3403    0.1033    2.6132 N   0  0
    4.0894   -2.2097   -1.4329 N   0  0
    5.0429   -2.7987    0.5944 N   0  3
    1.7810   -1.1134    4.0983 N   0  3
    2.3029   -0.1673    4.7333 O   0  5
    1.2429   -2.0888    4.6723 O   0  0
    1.9096   -1.0151   -1.1990 H   0  0
    0.0054   -0.0024   -0.0115 H   0  0
    3.6898   -2.1158    2.5593 H   0  0
   -1.0413    0.5616    2.0695 H   0  0
   -0.3508    0.1315    3.6113 H   0  0
    3.3421   -1.7876   -1.9727 H   0  0
    4.8634   -2.6280   -1.9376 H   0  0
    5.0317   -2.8178    1.6081 H   0  0
    5.8363   -3.2152    0.1194 H   0  0
  1  2  2  0
  1  4  1  0
  2  5  1  0
  3  4  2  0
  3  6  1  0
  4  7  1  0
  5  6  2  0
  5  8  1  0
  6 11  1  0
  7  9  1  0
  7 10  2  0
 11 12  1  0
 11 13  2  0
  1 14  1  0
  2 15  1  0
  3 16  1  0
  8 17  1  0
  8 18  1  0
  9 19  1  0
  9 20  1  0
 10 21  1  0
 10 22  1  0
M  CHG  3  10   1  11   1  12  -1
M  END
> <Name>
BR010653

$$$$
BR010654
  SciTegic05062102053D

 22 22  0  0  0  0            999 V2000
    1.8851   -1.0363   -0.1124 C   0  0
    0.8066   -0.4630    0.5610 C   0  0
    2.8783   -1.6520    2.0022 C   0  0
    2.9210   -1.6309    0.6081 C   0  0
    0.7638   -0.4841    1.9551 C   0  0
    1.7997   -1.0786    2.6757 C   0  0
    4.0381   -2.2270   -0.0899 C   0  0
   -0.3378    0.1021    2.6174 N   0  0
    1.7765   -1.1104    4.0882 N   0  0
    4.0880   -2.2135   -1.4326 N   0  0
    5.0418   -2.8006    0.5951 N   0  3
    1.9102   -1.0140   -1.1989 H   0  0
    0.0046   -0.0032   -0.0110 H   0  0
    3.6873   -2.1163    2.5618 H   0  0
   -1.0408    0.5616    2.0770 H   0  0
   -0.3455    0.1288    3.6159 H   0  0
    2.5088   -1.5838    4.5750 H   0  0
    0.9822   -0.7420    4.5686 H   0  0
    3.3408   -1.7915   -1.9726 H   0  0
    4.8614   -2.6332   -1.9370 H   0  0
    5.0311   -2.8183    1.6088 H   0  0
    5.8347   -3.2184    0.1203 H   0  0
  1  2  2  0
  1  4  1  0
  2  5  1  0
  3  4  2  0
  3  6  1  0
  4  7  1  0
  5  6  2  0
  5  8  1  0
  6  9  1  0
  7 10  1  0
  7 11  2  0
  1 12  1  0
  2 13  1  0
  3 14  1  0
  8 15  1  0
  8 16  1  0
  9 17  1  0
  9 18  1  0
 10 19  1  0
 10 20  1  0
 11 21  1  0
 11 22  1  0
M  CHG  1  11   1
M  END
> <Name>
BR010654

$$$$
BR010655
  SciTegic05062102053D

 31 31  0  0  0  0            999 V2000
    3.1226   -4.2420   -0.2383 C   0  0
    4.2302   -4.8977   -0.7756 C   0  0
    4.0448   -2.1183   -0.9286 C   0  0
    3.0298   -2.8523   -0.3149 C   0  0
    5.2452   -4.1637   -1.3894 C   0  0
    5.1526   -2.7740   -1.4659 C   0  0
    1.8571   -2.1583    0.2541 C   0  0
    1.5155    0.8630    2.2834 C   0  0
    0.4385   -1.2862    3.0363 C   0  0
    0.9795   -0.4951    1.8543 C   0  0
    6.3566   -4.8522   -1.9261 N   0  0
    2.0725   -1.2697    1.2178 N   0  0
    0.6520   -2.4629   -0.2277 N   0  3
    6.1742   -2.0014   -2.0862 N   0  3
    7.1272   -1.5858   -1.3864 O   0  5
    6.0896   -1.7608   -3.3131 O   0  0
    2.3365   -4.8225    0.2380 H   0  0
    4.2913   -5.9811   -0.7096 H   0  0
    3.9680   -1.0343   -0.9842 H   0  0
    2.3121    0.7509    3.0261 H   0  0
    1.9195    1.4210    1.4312 H   0  0
    0.7206    1.4717    2.7280 H   0  0
    1.2170   -1.4353    3.7925 H   0  0
    0.0836   -2.2714    2.7164 H   0  0
   -0.3944   -0.7640    3.5201 H   0  0
    0.1851   -0.3586    1.1124 H   0  0
    6.4144   -5.8426   -1.8131 H   0  0
    7.1067   -4.3264   -2.3239 H   0  0
    3.0145   -1.0961    1.5293 H   0  0
    0.5410   -3.1477   -0.9667 H   0  0
   -0.1863   -2.0132    0.1240 H   0  0
  1  2  2  0
  1  4  1  0
  2  5  1  0
  3  4  2  0
  3  6  1  0
  4  7  1  0
  5  6  2  0
  5 11  1  0
  6 14  1  0
  7 12  1  0
  7 13  2  0
  8 10  1  0
  9 10  1  0
 10 12  1  0
 14 15  1  0
 14 16  2  0
  1 17  1  0
  2 18  1  0
  3 19  1  0
  8 20  1  0
  8 21  1  0
  8 22  1  0
  9 23  1  0
  9 24  1  0
  9 25  1  0
 10 26  1  0
 11 27  1  0
 11 28  1  0
 12 29  1  0
 13 30  1  0
 13 31  1  0
M  CHG  3  13   1  14   1  15  -1
M  END
> <Name>
BR010655

$$$$
BR010656
  SciTegic05062102053D

 31 31  0  0  0  0            999 V2000
    3.3195   -2.7327   -1.6741 C   0  0
    4.4284   -3.3867   -2.2110 C   0  0
    3.8490   -3.6259    0.5074 C   0  0
    3.0298   -2.8523   -0.3149 C   0  0
    5.2476   -4.1603   -1.3887 C   0  0
    4.9579   -4.2799   -0.0295 C   0  0
    1.8571   -2.1583    0.2541 C   0  0
    1.5155    0.8630    2.2834 C   0  0
    0.4385   -1.2862    3.0363 C   0  0
    0.9795   -0.4951    1.8543 C   0  0
    6.3657   -4.8142   -1.9527 N   0  0
    5.7742   -5.0591    0.8210 N   0  0
    2.0725   -1.2697    1.2178 N   0  0
    0.6520   -2.4629   -0.2277 N   0  3
    2.6864   -2.1331   -2.3230 H   0  0
    4.6449   -3.2857   -3.2715 H   0  0
    3.6209   -3.7174    1.5671 H   0  0
    2.3121    0.7509    3.0261 H   0  0
    1.9195    1.4210    1.4312 H   0  0
    0.7206    1.4717    2.7280 H   0  0
    1.2170   -1.4353    3.7925 H   0  0
    0.0836   -2.2714    2.7164 H   0  0
   -0.3944   -0.7640    3.5201 H   0  0
    0.1851   -0.3586    1.1124 H   0  0
    6.5210   -4.7485   -2.9372 H   0  0
    6.9248   -5.4058   -1.3739 H   0  0
    5.5686   -5.0881    1.7979 H   0  0
    6.5942   -5.4886    0.4462 H   0  0
    3.0145   -1.0961    1.5293 H   0  0
    0.5410   -3.1477   -0.9667 H   0  0
   -0.1863   -2.0132    0.1240 H   0  0
  1  2  2  0
  1  4  1  0
  2  5  1  0
  3  4  2  0
  3  6  1  0
  4  7  1  0
  5  6  2  0
  5 11  1  0
  6 12  1  0
  7 13  1  0
  7 14  2  0
  8 10  1  0
  9 10  1  0
 10 13  1  0
  1 15  1  0
  2 16  1  0
  3 17  1  0
  8 18  1  0
  8 19  1  0
  8 20  1  0
  9 21  1  0
  9 22  1  0
  9 23  1  0
 10 24  1  0
 11 25  1  0
 11 26  1  0
 12 27  1  0
 12 28  1  0
 13 29  1  0
 14 30  1  0
 14 31  1  0
M  CHG  1  14   1
M  END
> <Name>
BR010656

$$$$
BR010657
  SciTegic05062102053D

 96 98  0  0  1  0            999 V2000
    7.2243   -3.9498   -9.8915 C   0  0
    6.8392   -3.7589   -8.5645 C   0  0
    7.3229   -6.3350   -9.5199 C   0  0
    7.4661   -5.2378  -10.3692 C   0  0
    6.6960   -4.8561   -7.7152 C   0  0
    6.9378   -6.1441   -8.1928 C   0  0
    7.8655   -5.4368  -11.7533 C   0  0
   -1.0671    2.1466   -1.1363 C   0  0
    2.0436   -5.2254   -3.0131 C   0  0
   -0.7572   -1.3554    0.5847 C   0  0
   -0.0523    0.1030   -5.4743 C   0  0
    4.8388   -6.7655   -4.1625 C   0  0
    4.5955   -3.0774    0.8344 C   0  0
    5.2099    1.1467   -7.5736 C   0  0
    0.4788    0.5545   -1.9482 C   0  0  1  0  0  0
    3.1946   -3.8104   -4.5154 C   0  0  1  0  0  0
    0.8838   -0.2837   -0.7353 C   0  0  2  0  0  0
    3.3736   -2.2958   -4.6205 C   0  0  1  0  0  0
    0.6540   -0.2355   -3.2448 C   0  0  2  0  0  0
    4.4801   -4.5469   -4.8926 C   0  0  2  0  0  0
    2.2922   -0.8509   -0.9441 C   0  0  1  0  0  0
    3.9923   -1.9141   -5.9673 C   0  0  1  0  0  0
    5.0556   -4.0230   -6.2082 C   0  0  1  0  0  0
    2.0523   -0.8532   -3.3182 C   0  0  1  0  0  0
   -2.5316    2.4562   -1.0628 C   0  0
    1.7643   -5.4425   -1.5568 C   0  0
   -1.6978   -2.5220    0.6020 C   0  0
   -0.1850    1.1520   -6.5363 C   0  0
    4.4263   -8.1843   -4.4134 C   0  0
    5.9643   -3.5022    0.3961 C   0  0
    5.8061    1.2749   -8.9426 C   0  0
    7.9524   -7.6355   -6.6429 C   0  0
    2.7412   -1.7604    0.1933 C   0  0
    4.2972   -0.4222   -6.0605 C   0  0
    8.0072   -4.5084  -12.5540 O   0  0
   -0.1918    2.8574   -0.6611 O   0  0
    1.6054   -5.9353   -3.9082 O   0  0
   -0.6545   -0.5445    1.4953 O   0  0
   -0.3744   -1.0679   -5.6237 O   0  0
    5.6467   -6.4278   -3.3079 O   0  0
    4.0670   -3.4388    1.8771 O   0  0
    5.0548    2.0846   -6.8032 O   0  0
    2.3325   -1.6237   -2.1504 O   0  0
    5.2271   -2.6088   -6.1508 O   0  0
    6.3177   -4.6557   -6.4159 O   0  0
    6.7990   -7.2240   -7.3741 O   0  0
   -0.8765    0.9704   -1.8046 O   0  0
    2.8471   -4.1334   -3.1679 O   0  0
   -0.0555   -1.3505   -0.5852 O   0  0
    0.4733    0.6579   -4.3432 O   0  0
    4.1797   -5.9357   -5.0233 O   0  0
    4.0422   -2.2393   -0.0972 O   0  0
    4.8739   -0.1583   -7.3264 O   0  0
    2.0984   -1.6910   -4.4725 O   0  0
    7.3327   -3.0875  -10.5443 H   0  0
    6.6526   -2.7531   -8.1984 H   0  0
    7.5083   -7.3408   -9.8898 H   0  0
    8.0471   -6.4814  -12.0882 H   0  0
    1.0888    1.4661   -1.9840 H   0  0
    2.3557   -4.1426   -5.1397 H   0  0
    0.8284    0.3270    0.1731 H   0  0
    4.0047   -1.9535   -3.7902 H   0  0
   -0.1221   -1.0060   -3.3290 H   0  0
    5.2153   -4.4532   -4.0833 H   0  0
    3.0146   -0.0291   -1.0319 H   0  0
    3.3092   -2.1657   -6.7894 H   0  0
    4.4098   -4.2929   -7.0535 H   0  0
    2.8161   -0.0757   -3.4459 H   0  0
   -2.8299    3.0471   -1.9322 H   0  0
   -2.7510    2.9944   -0.1372 H   0  0
   -3.1003    1.5217   -1.0647 H   0  0
    2.5261   -6.0973   -1.1266 H   0  0
    0.7684   -5.8749   -1.4306 H   0  0
    1.7949   -4.4819   -1.0345 H   0  0
   -2.6588   -2.2301    0.1714 H   0  0
   -1.8270   -2.8792    1.6268 H   0  0
   -1.2789   -3.3344    0.0010 H   0  0
   -1.1653    1.6297   -6.4654 H   0  0
   -0.0462    0.7013   -7.5223 H   0  0
    0.5857    1.9146   -6.3911 H   0  0
    3.5612   -8.4341   -3.7942 H   0  0
    5.2608   -8.8567   -4.1991 H   0  0
    4.1476   -8.3004   -5.4648 H   0  0
    5.8961   -4.4162   -0.1989 H   0  0
    6.6019   -3.6578    1.2700 H   0  0
    6.4074   -2.7160   -0.2220 H   0  0
    6.8892    1.1394   -8.8896 H   0  0
    5.5600    2.2526   -9.3643 H   0  0
    5.3894    0.5007   -9.5935 H   0  0
    7.7050   -8.5057   -6.0302 H   0  0
    8.2943   -6.8145   -6.0076 H   0  0
    8.7436   -7.9020   -7.3477 H   0  0
    2.0595   -2.6064    0.2865 H   0  0
    2.7644   -1.2032    1.1305 H   0  0
    5.0000   -0.1366   -5.2778 H   0  0
    3.3772    0.1530   -5.9566 H   0  0
  1  2  2  0
  1  4  1  0
  2  5  1  0
  3  4  2  0
  3  6  1  0
  4  7  1  0
  5  6  2  0
  5 45  1  0
  6 46  1  0
  7 35  2  0
  8 25  1  0
  8 36  2  0
  8 47  1  0
  9 26  1  0
  9 37  2  0
  9 48  1  0
 10 27  1  0
 10 38  2  0
 10 49  1  0
 11 28  1  0
 11 39  2  0
 11 50  1  0
 12 29  1  0
 12 40  2  0
 12 51  1  0
 13 30  1  0
 13 41  2  0
 13 52  1  0
 14 31  1  0
 14 42  2  0
 14 53  1  0
 15 17  1  0
 15 19  1  0
 15 47  1  0
 16 18  1  0
 16 20  1  0
 16 48  1  0
 17 21  1  0
 17 49  1  0
 18 22  1  0
 18 54  1  0
 19 24  1  0
 19 50  1  0
 20 23  1  0
 20 51  1  0
 21 33  1  0
 21 43  1  0
 22 34  1  0
 22 44  1  0
 23 44  1  0
 23 45  1  0
 24 43  1  0
 24 54  1  0
 32 46  1  0
 33 52  1  0
 34 53  1  0
  1 55  1  0
  2 56  1  0
  3 57  1  0
  7 58  1  0
 15 59  1  0
 16 60  1  0
 17 61  1  0
 18 62  1  0
 19 63  1  0
 20 64  1  0
 21 65  1  0
 22 66  1  0
 23 67  1  0
 24 68  1  0
 25 69  1  0
 25 70  1  0
 25 71  1  0
 26 72  1  0
 26 73  1  0
 26 74  1  0
 27 75  1  0
 27 76  1  0
 27 77  1  0
 28 78  1  0
 28 79  1  0
 28 80  1  0
 29 81  1  0
 29 82  1  0
 29 83  1  0
 30 84  1  0
 30 85  1  0
 30 86  1  0
 31 87  1  0
 31 88  1  0
 31 89  1  0
 32 90  1  0
 32 91  1  0
 32 92  1  0
 33 93  1  0
 33 94  1  0
 34 95  1  0
 34 96  1  0
M  END
> <Name>
BR010657

$$$$
BR010658
  SciTegic05062102053D

 61 62  0  0  1  0            999 V2000
    2.8926    1.2237   -6.0434 C   0  0
    2.4948    1.6854   -4.7888 C   0  0
    4.8402    0.1972   -5.0483 C   0  0
    4.0653    0.4795   -6.1732 C   0  0
    3.2697    1.4030   -3.6639 C   0  0
    4.4424    0.6589   -3.7936 C   0  0
    4.4788   -0.0036   -7.4811 C   0  0
    3.6958    0.7072    0.7773 C   0  0
   -0.5547    0.5239    2.2914 C   0  0
   -2.8559    2.3188    0.6646 C   0  0
   -2.3582    3.5959   -4.8424 C   0  0
    1.6326    1.3683   -0.4429 C   0  0  2  0  0  0
    0.2477    1.0609    0.1346 C   0  0  2  0  0  0
   -0.8328    1.9416   -0.4968 C   0  0  1  0  0  0
   -0.7278    1.9143   -2.0238 C   0  0  1  0  0  0
    1.5960    1.4133   -1.9744 C   0  0  1  0  0  0
    4.5495   -0.4645    1.1331 C   0  0
   -0.4179    0.8876    3.7388 C   0  0
   -4.1568    1.6725    1.0336 C   0  0
   -2.0667    3.4075   -6.3003 C   0  0
    6.2293    1.3097   -2.3656 C   0  0
   -1.7127    2.8712   -2.6878 C   0  0
    2.5937    0.3847    0.0115 N   0  0
    3.8362    0.2108   -8.5127 O   0  0
    4.0103    1.8250    1.1689 O   0  0
   -1.3060   -0.3458    1.8716 O   0  0
   -2.5388    3.4549    0.9897 O   0  0
   -3.2063    4.3627   -4.4067 O   0  0
    0.5845    2.3138   -2.4232 O   0  0
    2.8687    1.8615   -2.4389 O   0  0
    5.2065    0.3744   -2.7023 O   0  0
    0.2770    1.3041    1.5425 O   0  0
   -2.1032    1.4519   -0.0757 O   0  0
   -1.5421    2.7917   -4.0912 O   0  0
    2.2809    1.4496   -6.9131 H   0  0
    1.5805    2.2648   -4.6944 H   0  0
    5.7538   -0.3848   -5.1456 H   0  0
    5.4204   -0.5923   -7.5347 H   0  0
    1.9910    2.3282   -0.0497 H   0  0
   -0.0001    0.0000    0.0001 H   0  0
   -0.7252    2.9653   -0.1157 H   0  0
   -0.9332    0.9060   -2.4066 H   0  0
    1.4162    0.4154   -2.3950 H   0  0
    5.3373   -0.6531    0.3861 H   0  0
    5.0814   -0.3228    2.0876 H   0  0
    4.0152   -1.4222    1.2387 H   0  0
    0.3644    0.2808    4.2014 H   0  0
   -1.3726    0.7409    4.2500 H   0  0
   -0.1370    1.9415    3.8229 H   0  0
   -4.9045    1.8779    0.2636 H   0  0
   -4.4924    2.0429    2.0055 H   0  0
   -4.0168    0.5899    1.1037 H   0  0
   -1.2937    4.1116   -6.6180 H   0  0
   -2.9806    3.5496   -6.8827 H   0  0
   -1.7020    2.3900   -6.4687 H   0  0
    6.7629    0.9631   -1.4772 H   0  0
    5.7812    2.2884   -2.1759 H   0  0
    6.9291    1.3874   -3.2010 H   0  0
   -1.5191    3.8923   -2.3588 H   0  0
   -2.7346    2.5902   -2.4327 H   0  0
    2.4503   -0.5860   -0.2448 H   0  0
  1  2  2  0
  1  4  1  0
  2  5  1  0
  3  4  2  0
  3  6  1  0
  4  7  1  0
  5  6  2  0
  5 30  1  0
  6 31  1  0
  7 24  2  0
  8 17  1  0
  8 23  1  0
  8 25  2  0
  9 18  1  0
  9 26  2  0
  9 32  1  0
 10 19  1  0
 10 27  2  0
 10 33  1  0
 11 20  1  0
 11 28  2  0
 11 34  1  0
 12 13  1  0
 12 16  1  0
 12 23  1  0
 13 14  1  0
 13 32  1  0
 14 15  1  0
 14 33  1  0
 15 22  1  0
 15 29  1  0
 16 29  1  0
 16 30  1  0
 21 31  1  0
 22 34  1  0
  1 35  1  0
  2 36  1  0
  3 37  1  0
  7 38  1  0
 12 39  1  0
 13 40  1  0
 14 41  1  0
 15 42  1  0
 16 43  1  0
 17 44  1  0
 17 45  1  0
 17 46  1  0
 18 47  1  0
 18 48  1  0
 18 49  1  0
 19 50  1  0
 19 51  1  0
 19 52  1  0
 20 53  1  0
 20 54  1  0
 20 55  1  0
 21 56  1  0
 21 57  1  0
 21 58  1  0
 22 59  1  0
 22 60  1  0
 23 61  1  0
M  END
> <Name>
BR010658

$$$$
BR010659
  SciTegic05062102053D

 77 80  0  0  1  0            999 V2000
    1.9314   -3.3465   -6.1461 C   0  0
    5.6512   -2.6047  -11.5477 C   0  0
    4.4850   -2.3482  -10.8192 C   0  0
    1.2117   -3.4030   -4.9526 C   0  0
    3.9924   -3.1848   -4.8957 C   0  0
    6.7334   -3.5973   -9.6056 C   0  0
    3.3218   -3.2375   -6.1176 C   0  0
    6.7566   -3.2181  -10.9537 C   0  0
    5.5699   -3.3469   -8.8586 C   0  0
    4.4845   -2.7342   -9.4784 C   0  0
    1.8823   -3.3503   -3.7306 C   0  0
    3.2726   -3.2412   -3.7022 C   0  0
    4.0660   -3.1795   -7.3521 C   0  0
    7.9451   -3.4664  -11.7406 C   0  0
   -2.9489   -2.3852    0.9259 C   0  0
   -1.9601    1.2972    0.6303 C   0  0
   -0.5781   -4.9802   -0.7549 C   0  0
    2.0851    2.3919   -3.8973 C   0  0
   -1.4240   -1.4908   -0.6420 C   0  0  1  0  0  0
   -0.7391   -0.1332   -0.8004 C   0  0  1  0  0  0
   -0.4804   -2.6337   -1.0165 C   0  0  2  0  0  0
   -0.0643   -0.0218   -2.1696 C   0  0  1  0  0  0
    0.2035   -2.3731   -2.3586 C   0  0  1  0  0  0
   -3.2456   -2.4561    2.3933 C   0  0
   -3.0176    2.3592    0.6347 C   0  0
   -1.4975   -6.1567   -0.8841 C   0  0
    2.6512    2.2726   -5.2799 C   0  0
    4.3558   -4.4309   -1.9508 C   0  0
    0.7314    1.2714   -2.3175 C   0  0
    5.2914   -3.6161   -7.5382 N   0  0
    3.5371   -2.6397   -8.4915 N   0  0
    7.9902   -3.1111  -13.0352 N   0  0
    9.0182   -4.0536  -11.1856 N   0  3
   -3.6287   -2.9235    0.0626 O   0  0
   -1.4018    0.8821    1.6368 O   0  0
    0.5888   -5.0588   -0.3953 O   0  0
    2.2827    3.3451   -3.1560 O   0  0
    0.8515   -1.1032   -2.3511 O   0  0
    1.1656   -3.4063   -2.5667 O   0  0
    3.9393   -3.1891   -2.5152 O   0  0
   -1.8241   -1.6404    0.7212 O   0  0
   -1.7290    0.8812   -0.6501 O   0  0
   -1.2427   -3.8373   -1.0959 O   0  0
    1.3285    1.2888   -3.6013 O   0  0
    1.3939   -3.3888   -7.0903 H   0  0
    5.6875   -2.3162  -12.5961 H   0  0
    3.6262   -1.8709  -11.2774 H   0  0
    0.1289   -3.4878   -4.9818 H   0  0
    5.0766   -3.1003   -4.8633 H   0  0
    7.5929   -4.0741   -9.1441 H   0  0
   -2.3429   -1.5299   -1.2405 H   0  0
   -0.0062   -0.0080    0.0071 H   0  0
    0.2643   -2.7781   -0.2236 H   0  0
   -0.8146   -0.0439   -2.9711 H   0  0
   -0.5186   -2.4258   -3.1832 H   0  0
   -2.7433   -3.3218    2.8318 H   0  0
   -4.3255   -2.5163    2.5509 H   0  0
   -2.8728   -1.5517    2.8827 H   0  0
   -2.5548    3.3438    0.5316 H   0  0
   -3.5980    2.3008    1.5589 H   0  0
   -3.6935    2.2014   -0.2108 H   0  0
   -2.0182   -6.3261    0.0616 H   0  0
   -0.9275   -7.0428   -1.1746 H   0  0
   -2.2413   -5.9522   -1.6598 H   0  0
    3.6230    1.7743   -5.2410 H   0  0
    2.7441    3.2643   -5.7296 H   0  0
    1.9763    1.6727   -5.8974 H   0  0
    4.8748   -4.2472   -1.0069 H   0  0
    5.0199   -4.9454   -2.6499 H   0  0
    3.4750   -5.0502   -1.7652 H   0  0
    1.5109    1.3176   -1.5570 H   0  0
    0.0680    2.1303   -2.2170 H   0  0
    2.6126   -2.2419   -8.5936 H   0  0
    7.1914   -2.6711  -13.4784 H   0  0
    8.8134   -3.2843  -13.6019 H   0  0
    9.0112   -4.3254  -10.2088 H   0  0
    9.8604   -4.2298  -11.7225 H   0  0
  1  4  2  0
  1  7  1  0
  2  3  2  0
  2  8  1  0
  3 10  1  0
  4 11  1  0
  5  7  2  0
  5 12  1  0
  6  8  2  0
  6  9  1  0
  7 13  1  0
  8 14  1  0
  9 10  2  0
  9 30  1  0
 10 31  1  0
 11 12  2  0
 11 39  1  0
 12 40  1  0
 13 30  2  0
 13 31  1  0
 14 32  1  0
 14 33  2  0
 15 24  1  0
 15 34  2  0
 15 41  1  0
 16 25  1  0
 16 35  2  0
 16 42  1  0
 17 26  1  0
 17 36  2  0
 17 43  1  0
 18 27  1  0
 18 37  2  0
 18 44  1  0
 19 20  1  0
 19 21  1  0
 19 41  1  0
 20 22  1  0
 20 42  1  0
 21 23  1  0
 21 43  1  0
 22 29  1  0
 22 38  1  0
 23 38  1  0
 23 39  1  0
 28 40  1  0
 29 44  1  0
  1 45  1  0
  2 46  1  0
  3 47  1  0
  4 48  1  0
  5 49  1  0
  6 50  1  0
 19 51  1  0
 20 52  1  0
 21 53  1  0
 22 54  1  0
 23 55  1  0
 24 56  1  0
 24 57  1  0
 24 58  1  0
 25 59  1  0
 25 60  1  0
 25 61  1  0
 26 62  1  0
 26 63  1  0
 26 64  1  0
 27 65  1  0
 27 66  1  0
 27 67  1  0
 28 68  1  0
 28 69  1  0
 28 70  1  0
 29 71  1  0
 29 72  1  0
 31 73  1  0
 32 74  1  0
 32 75  1  0
 33 76  1  0
 33 77  1  0
M  CHG  1  33   1
M  END
> <Name>
BR010659

$$$$
BR010660
  SciTegic05062102053D

 77 80  0  0  1  0            999 V2000
    4.7840   -4.1604   -4.1709 C   0  0
   10.6966   -6.8685   -5.2988 C   0  0
    9.6909   -6.4438   -4.4242 C   0  0
    3.5944   -3.4710   -3.9360 C   0  0
    5.3207   -2.6256   -5.9578 C   0  0
    9.6272   -5.7591   -7.1839 C   0  0
    5.6472   -3.7377   -5.1818 C   0  0
   10.6673   -6.5334   -6.6545 C   0  0
    8.6083   -5.3240   -6.3196 C   0  0
    8.6651   -5.6740   -4.9735 C   0  0
    3.2680   -2.3589   -4.7121 C   0  0
    4.1311   -1.9361   -5.7230 C   0  0
    6.8777   -4.4506   -5.4243 C   0  0
   11.7261   -6.9920   -7.5274 C   0  0
   -0.1514    2.7277   -1.1123 C   0  0
   -2.1676   -0.5982   -0.6712 C   0  0
    1.0128    1.9772   -4.7638 C   0  0
   -0.0513   -3.2307    2.0855 C   0  0
    0.7233    0.6893   -1.9268 C   0  0  1  0  0  0
    0.1626   -0.3970   -1.0083 C   0  0  2  0  0  0
    1.0679    0.1207   -3.3030 C   0  0  2  0  0  0
    1.1199   -1.5934   -0.9760 C   0  0  1  0  0  0
    1.9375   -1.1315   -3.1696 C   0  0  1  0  0  0
   -1.2083    3.7587   -1.3695 C   0  0
   -3.4304   -1.0693   -1.3265 C   0  0
    1.8918    2.9615   -5.4741 C   0  0
   -0.1861   -2.6172    3.4462 C   0  0
    3.0771   -1.0891   -7.6794 C   0  0
    0.5950   -2.7518   -0.1363 C   0  0
    7.4913   -4.5641   -6.5808 N   0  0
    7.5459   -5.1020   -4.4251 N   0  0
   12.7335   -7.7361   -7.0419 N   0  0
   11.7133   -6.6809   -8.8340 N   0  3
    0.6512    2.7844   -0.1904 O   0  0
   -2.1187   -0.1064    0.4481 O   0  0
   -0.2082    1.9681   -4.8419 O   0  0
   -0.3267   -4.3949    1.8285 O   0  0
    1.3267   -2.0883   -2.3049 O   0  0
    2.0984   -1.6910   -4.4725 O   0  0
    3.8238   -0.8514   -6.4877 O   0  0
   -0.2303    1.7405   -2.0532 O   0  0
   -1.1121   -0.8043   -1.5106 O   0  0
    1.7818    1.1166   -4.0347 O   0  0
    0.4192   -2.3021    1.1952 O   0  0
    5.0240   -5.0253   -3.5571 H   0  0
   11.5121   -7.4716   -4.9052 H   0  0
    9.7105   -6.7038   -3.3720 H   0  0
    2.9265   -3.8056   -3.1471 H   0  0
    5.9878   -2.2880   -6.7483 H   0  0
    9.6046   -5.4987   -8.2378 H   0  0
    1.6205    1.1273   -1.4713 H   0  0
   -0.0004    0.0130   -0.0050 H   0  0
    0.1516   -0.0940   -3.8664 H   0  0
    2.0891   -1.2829   -0.5645 H   0  0
    2.9371   -0.8744   -2.7968 H   0  0
   -0.8169    4.5334   -2.0335 H   0  0
   -1.5403    4.1936   -0.4233 H   0  0
   -2.0667    3.2849   -1.8544 H   0  0
   -3.8817   -0.2512   -1.8932 H   0  0
   -4.1244   -1.4424   -0.5691 H   0  0
   -3.1981   -1.8852   -2.0171 H   0  0
    2.0530    3.8384   -4.8422 H   0  0
    1.4342    3.2496   -6.4239 H   0  0
    2.8609    2.4984   -5.6816 H   0  0
    0.7455   -2.7423    4.0034 H   0  0
   -1.0200   -3.0794    3.9806 H   0  0
   -0.3897   -1.5473    3.3430 H   0  0
    2.9002   -0.1417   -8.1944 H   0  0
    2.1248   -1.5615   -7.4255 H   0  0
    3.6493   -1.7540   -8.3307 H   0  0
    1.3108   -3.5747   -0.1460 H   0  0
   -0.3628   -3.0945   -0.5293 H   0  0
    7.2691   -5.1543   -3.4534 H   0  0
   12.7684   -7.9798   -6.0583 H   0  0
   13.4865   -8.0596   -7.6394 H   0  0
   10.9606   -6.1260   -9.2258 H   0  0
   12.4454   -6.9991   -9.4597 H   0  0
  1  4  2  0
  1  7  1  0
  2  3  2  0
  2  8  1  0
  3 10  1  0
  4 11  1  0
  5  7  2  0
  5 12  1  0
  6  8  2  0
  6  9  1  0
  7 13  1  0
  8 14  1  0
  9 10  2  0
  9 30  1  0
 10 31  1  0
 11 12  2  0
 11 39  1  0
 12 40  1  0
 13 30  2  0
 13 31  1  0
 14 32  1  0
 14 33  2  0
 15 24  1  0
 15 34  2  0
 15 41  1  0
 16 25  1  0
 16 35  2  0
 16 42  1  0
 17 26  1  0
 17 36  2  0
 17 43  1  0
 18 27  1  0
 18 37  2  0
 18 44  1  0
 19 20  1  0
 19 21  1  0
 19 41  1  0
 20 22  1  0
 20 42  1  0
 21 23  1  0
 21 43  1  0
 22 29  1  0
 22 38  1  0
 23 38  1  0
 23 39  1  0
 28 40  1  0
 29 44  1  0
  1 45  1  0
  2 46  1  0
  3 47  1  0
  4 48  1  0
  5 49  1  0
  6 50  1  0
 19 51  1  0
 20 52  1  0
 21 53  1  0
 22 54  1  0
 23 55  1  0
 24 56  1  0
 24 57  1  0
 24 58  1  0
 25 59  1  0
 25 60  1  0
 25 61  1  0
 26 62  1  0
 26 63  1  0
 26 64  1  0
 27 65  1  0
 27 66  1  0
 27 67  1  0
 28 68  1  0
 28 69  1  0
 28 70  1  0
 29 71  1  0
 29 72  1  0
 31 73  1  0
 32 74  1  0
 32 75  1  0
 33 76  1  0
 33 77  1  0
M  CHG  1  33   1
M  END
> <Name>
BR010660

$$$$
BR010661
  SciTegic05062102053D

113117  0  0  1  0            999 V2000
    7.0776   -4.2178   -9.9701 C   0  0
   10.4077   -2.0655  -15.2467 C   0  0
    9.2120   -2.2491  -14.5444 C   0  0
    6.4008   -4.5575   -8.7987 C   0  0
    8.9354   -3.4003   -8.6597 C   0  0
   11.7316   -2.6902  -13.3013 C   0  0
    8.3450   -3.6393   -9.9006 C   0  0
   11.6462   -2.2816  -14.6382 C   0  0
   10.5404   -2.8793  -12.5805 C   0  0
    9.3212   -2.6562  -13.2143 C   0  0
    6.9913   -4.3185   -7.5578 C   0  0
    8.2587   -3.7399   -7.4883 C   0  0
    9.0449   -3.2884  -11.1123 C   0  0
   12.8609   -2.0806  -15.3981 C   0  0
   -1.0671    2.1466   -1.1363 C   0  0
    2.0436   -5.2254   -3.0131 C   0  0
   -0.7572   -1.3554    0.5847 C   0  0
   -0.0523    0.1030   -5.4743 C   0  0
    5.1907   -6.7917   -4.6932 C   0  0
    4.5955   -3.0774    0.8344 C   0  0
    5.5817    1.2335   -4.9684 C   0  0
    0.4788    0.5545   -1.9482 C   0  0  1  0  0  0
    3.1946   -3.8104   -4.5154 C   0  0  1  0  0  0
    0.8838   -0.2837   -0.7353 C   0  0  2  0  0  0
    3.3736   -2.2958   -4.6205 C   0  0  1  0  0  0
    0.6540   -0.2355   -3.2448 C   0  0  2  0  0  0
    4.4801   -4.5469   -4.8926 C   0  0  2  0  0  0
    2.2922   -0.8509   -0.9441 C   0  0  1  0  0  0
    3.9923   -1.9141   -5.9673 C   0  0  1  0  0  0
    5.0556   -4.0230   -6.2082 C   0  0  1  0  0  0
    2.0523   -0.8532   -3.3182 C   0  0  1  0  0  0
   -2.5316    2.4562   -1.0628 C   0  0
    1.7643   -5.4425   -1.5568 C   0  0
   -1.6978   -2.5220    0.6020 C   0  0
   -0.1850    1.1520   -6.5363 C   0  0
    4.7343   -8.2073   -4.8774 C   0  0
    5.9643   -3.5022    0.3961 C   0  0
    6.5346    1.4452   -3.8312 C   0  0
    9.6546   -4.5430   -5.7384 C   0  0
    2.7412   -1.7604    0.1933 C   0  0
    4.2972   -0.4222   -6.0605 C   0  0
   10.3488   -3.2715  -11.2756 N   0  0
    8.3823   -2.9254  -12.2517 N   0  0
   12.8033   -1.6885  -16.6816 N   0  0
   14.0607   -2.2819  -14.8288 N   0  3
   -0.1918    2.8574   -0.6611 O   0  0
    1.6054   -5.9353   -3.9082 O   0  0
   -0.6545   -0.5445    1.4953 O   0  0
   -0.3744   -1.0679   -5.6237 O   0  0
    6.3071   -6.4769   -4.3036 O   0  0
    4.0670   -3.4388    1.8771 O   0  0
    5.2089    2.1206   -5.7241 O   0  0
    2.3325   -1.6237   -2.1504 O   0  0
    5.2271   -2.6088   -6.1508 O   0  0
    6.3177   -4.6557   -6.4159 O   0  0
    8.8462   -3.5016   -6.2825 O   0  0
   -0.8765    0.9704   -1.8046 O   0  0
    2.8471   -4.1334   -3.1679 O   0  0
   -0.0555   -1.3505   -0.5852 O   0  0
    0.4733    0.6579   -4.3432 O   0  0
    4.1797   -5.9357   -5.0233 O   0  0
    4.0422   -2.2393   -0.0972 O   0  0
    5.2022   -0.0817   -5.0261 O   0  0
    2.0984   -1.6910   -4.4725 O   0  0
    6.6037   -4.4107  -10.9296 H   0  0
   10.3605   -1.7474  -16.2861 H   0  0
    8.2495   -2.0806  -15.0138 H   0  0
    5.4139   -5.0078   -8.8599 H   0  0
    9.9238   -2.9499   -8.5954 H   0  0
   12.6946   -2.8581  -12.8284 H   0  0
    1.0888    1.4661   -1.9840 H   0  0
    2.3557   -4.1426   -5.1397 H   0  0
    0.8284    0.3270    0.1731 H   0  0
    4.0047   -1.9535   -3.7902 H   0  0
   -0.1221   -1.0060   -3.3290 H   0  0
    5.2153   -4.4532   -4.0833 H   0  0
    3.0146   -0.0291   -1.0319 H   0  0
    3.3092   -2.1657   -6.7894 H   0  0
    4.4098   -4.2929   -7.0535 H   0  0
    2.8161   -0.0757   -3.4459 H   0  0
   -2.8299    3.0471   -1.9322 H   0  0
   -2.7510    2.9944   -0.1372 H   0  0
   -3.1003    1.5217   -1.0647 H   0  0
    2.5261   -6.0973   -1.1266 H   0  0
    0.7684   -5.8749   -1.4306 H   0  0
    1.7949   -4.4819   -1.0345 H   0  0
   -2.6588   -2.2301    0.1714 H   0  0
   -1.8270   -2.8792    1.6268 H   0  0
   -1.2789   -3.3344    0.0010 H   0  0
   -1.1653    1.6297   -6.4654 H   0  0
   -0.0462    0.7013   -7.5223 H   0  0
    0.5857    1.9146   -6.3911 H   0  0
    4.2875   -8.5764   -3.9509 H   0  0
    5.5792   -8.8338   -5.1743 H   0  0
    3.9791   -8.2448   -5.6678 H   0  0
    5.8961   -4.4162   -0.1989 H   0  0
    6.6019   -3.6578    1.2700 H   0  0
    6.4074   -2.7160   -0.2220 H   0  0
    5.9796    1.6980   -2.9244 H   0  0
    7.2428    2.2385   -4.0835 H   0  0
    7.0951    0.5232   -3.6513 H   0  0
   10.0624   -4.2238   -4.7762 H   0  0
   10.4670   -4.7748   -6.4317 H   0  0
    9.0375   -5.4328   -5.5928 H   0  0
    2.0595   -2.6064    0.2865 H   0  0
    2.7644   -1.2032    1.1305 H   0  0
    3.3794    0.1533   -5.9401 H   0  0
    4.7504   -0.1944   -7.0253 H   0  0
    7.3793   -2.8659  -12.3692 H   0  0
   11.9097   -1.5350  -17.1353 H   0  0
   13.6454   -1.5498  -17.2296 H   0  0
   14.1309   -2.5719  -13.8598 H   0  0
   14.9213   -2.1404  -15.3466 H   0  0
  1  4  2  0
  1  7  1  0
  2  3  2  0
  2  8  1  0
  3 10  1  0
  4 11  1  0
  5  7  2  0
  5 12  1  0
  6  8  2  0
  6  9  1  0
  7 13  1  0
  8 14  1  0
  9 10  2  0
  9 42  1  0
 10 43  1  0
 11 12  2  0
 11 55  1  0
 12 56  1  0
 13 42  2  0
 13 43  1  0
 14 44  1  0
 14 45  2  0
 15 32  1  0
 15 46  2  0
 15 57  1  0
 16 33  1  0
 16 47  2  0
 16 58  1  0
 17 34  1  0
 17 48  2  0
 17 59  1  0
 18 35  1  0
 18 49  2  0
 18 60  1  0
 19 36  1  0
 19 50  2  0
 19 61  1  0
 20 37  1  0
 20 51  2  0
 20 62  1  0
 21 38  1  0
 21 52  2  0
 21 63  1  0
 22 24  1  0
 22 26  1  0
 22 57  1  0
 23 25  1  0
 23 27  1  0
 23 58  1  0
 24 28  1  0
 24 59  1  0
 25 29  1  0
 25 64  1  0
 26 31  1  0
 26 60  1  0
 27 30  1  0
 27 61  1  0
 28 40  1  0
 28 53  1  0
 29 41  1  0
 29 54  1  0
 30 54  1  0
 30 55  1  0
 31 53  1  0
 31 64  1  0
 39 56  1  0
 40 62  1  0
 41 63  1  0
  1 65  1  0
  2 66  1  0
  3 67  1  0
  4 68  1  0
  5 69  1  0
  6 70  1  0
 22 71  1  0
 23 72  1  0
 24 73  1  0
 25 74  1  0
 26 75  1  0
 27 76  1  0
 28 77  1  0
 29 78  1  0
 30 79  1  0
 31 80  1  0
 32 81  1  0
 32 82  1  0
 32 83  1  0
 33 84  1  0
 33 85  1  0
 33 86  1  0
 34 87  1  0
 34 88  1  0
 34 89  1  0
 35 90  1  0
 35 91  1  0
 35 92  1  0
 36 93  1  0
 36 94  1  0
 36 95  1  0
 37 96  1  0
 37 97  1  0
 37 98  1  0
 38 99  1  0
 38100  1  0
 38101  1  0
 39102  1  0
 39103  1  0
 39104  1  0
 40105  1  0
 40106  1  0
 41107  1  0
 41108  1  0
 43109  1  0
 44110  1  0
 44111  1  0
 45112  1  0
 45113  1  0
M  CHG  1  45   1
M  END
> <Name>
BR010661

$$$$
BR010662
  SciTegic05062102053D

 78 81  0  0  1  0            999 V2000
    2.8938    1.2233   -6.0436 C   0  0
    4.8814   -1.5142  -11.7111 C   0  0
    3.8706   -1.1493  -10.8157 C   0  0
    2.4953    1.6850   -4.7892 C   0  0
    4.8412    0.1975   -5.0474 C   0  0
    6.6127   -1.0200  -10.0720 C   0  0
    4.0668    0.4795   -6.1727 C   0  0
    6.2287   -1.4516  -11.3479 C   0  0
    5.6103   -0.6493   -9.1598 C   0  0
    4.2763   -0.7226   -9.5508 C   0  0
    3.2697    1.4030   -3.6639 C   0  0
    4.4427    0.6593   -3.7929 C   0  0
    4.4786    0.0017   -7.4701 C   0  0
    7.2452   -1.8374  -12.3025 C   0  0
    3.6958    0.7072    0.7773 C   0  0
   -0.5547    0.5239    2.2914 C   0  0
   -2.8559    2.3188    0.6646 C   0  0
   -2.3582    3.5959   -4.8424 C   0  0
    1.6326    1.3683   -0.4429 C   0  0  2  0  0  0
    0.2477    1.0609    0.1346 C   0  0  2  0  0  0
   -0.8328    1.9416   -0.4968 C   0  0  1  0  0  0
   -0.7278    1.9143   -2.0238 C   0  0  1  0  0  0
    1.5960    1.4133   -1.9744 C   0  0  1  0  0  0
    4.5495   -0.4645    1.1331 C   0  0
   -0.4179    0.8876    3.7388 C   0  0
   -4.1568    1.6725    1.0336 C   0  0
   -2.0667    3.4075   -6.3003 C   0  0
    6.2300    1.3133   -2.3670 C   0  0
   -1.7127    2.8712   -2.6878 C   0  0
    5.7163   -0.1976   -7.8643 N   0  0
    3.5750   -0.3004   -8.4505 N   0  0
    6.9004   -2.2541  -13.5321 N   0  0
    2.5937    0.3847    0.0115 N   0  0
    8.5457   -1.7818  -11.9714 N   0  3
    4.0103    1.8250    1.1689 O   0  0
   -1.3060   -0.3458    1.8716 O   0  0
   -2.5388    3.4549    0.9897 O   0  0
   -3.2063    4.3627   -4.4067 O   0  0
    0.5845    2.3138   -2.4232 O   0  0
    2.8687    1.8615   -2.4389 O   0  0
    5.2076    0.3770   -2.7015 O   0  0
    0.2770    1.3041    1.5425 O   0  0
   -2.1032    1.4519   -0.0757 O   0  0
   -1.5421    2.7917   -4.0912 O   0  0
    2.2791    1.4515   -6.9110 H   0  0
    4.6018   -1.8512  -12.7071 H   0  0
    2.8243   -1.1956  -11.0955 H   0  0
    1.5806    2.2639   -4.6957 H   0  0
    5.7574   -0.3823   -5.1379 H   0  0
    7.6601   -0.9714   -9.7899 H   0  0
    1.9910    2.3282   -0.0497 H   0  0
   -0.0001    0.0000    0.0001 H   0  0
   -0.7252    2.9653   -0.1157 H   0  0
   -0.9332    0.9060   -2.4066 H   0  0
    1.4162    0.4154   -2.3950 H   0  0
    5.3373   -0.6531    0.3861 H   0  0
    5.0814   -0.3228    2.0876 H   0  0
    4.0152   -1.4222    1.2387 H   0  0
    0.3644    0.2808    4.2014 H   0  0
   -1.3726    0.7409    4.2500 H   0  0
   -0.1370    1.9415    3.8229 H   0  0
   -4.9045    1.8779    0.2636 H   0  0
   -4.4924    2.0429    2.0055 H   0  0
   -4.0168    0.5899    1.1037 H   0  0
   -1.2937    4.1116   -6.6180 H   0  0
   -2.9806    3.5496   -6.8827 H   0  0
   -1.7020    2.3900   -6.4687 H   0  0
    6.7644    0.9686   -1.4783 H   0  0
    5.7816    2.2921   -2.1788 H   0  0
    6.9293    1.3899   -3.2030 H   0  0
   -1.5191    3.8923   -2.3588 H   0  0
   -2.7346    2.5902   -2.4327 H   0  0
    2.5682   -0.2285   -8.3813 H   0  0
    5.9253   -2.3098  -13.8043 H   0  0
    7.6006   -2.5343  -14.2103 H   0  0
    2.4503   -0.5860   -0.2448 H   0  0
    8.8318   -1.4647  -11.0518 H   0  0
    9.2703   -2.0440  -12.6309 H   0  0
  1  4  2  0
  1  7  1  0
  2  3  2  0
  2  8  1  0
  3 10  1  0
  4 11  1  0
  5  7  2  0
  5 12  1  0
  6  8  2  0
  6  9  1  0
  7 13  1  0
  8 14  1  0
  9 10  2  0
  9 30  1  0
 10 31  1  0
 11 12  2  0
 11 40  1  0
 12 41  1  0
 13 30  2  0
 13 31  1  0
 14 32  1  0
 14 34  2  0
 15 24  1  0
 15 33  1  0
 15 35  2  0
 16 25  1  0
 16 36  2  0
 16 42  1  0
 17 26  1  0
 17 37  2  0
 17 43  1  0
 18 27  1  0
 18 38  2  0
 18 44  1  0
 19 20  1  0
 19 23  1  0
 19 33  1  0
 20 21  1  0
 20 42  1  0
 21 22  1  0
 21 43  1  0
 22 29  1  0
 22 39  1  0
 23 39  1  0
 23 40  1  0
 28 41  1  0
 29 44  1  0
  1 45  1  0
  2 46  1  0
  3 47  1  0
  4 48  1  0
  5 49  1  0
  6 50  1  0
 19 51  1  0
 20 52  1  0
 21 53  1  0
 22 54  1  0
 23 55  1  0
 24 56  1  0
 24 57  1  0
 24 58  1  0
 25 59  1  0
 25 60  1  0
 25 61  1  0
 26 62  1  0
 26 63  1  0
 26 64  1  0
 27 65  1  0
 27 66  1  0
 27 67  1  0
 28 68  1  0
 28 69  1  0
 28 70  1  0
 29 71  1  0
 29 72  1  0
 31 73  1  0
 32 74  1  0
 32 75  1  0
 33 76  1  0
 34 77  1  0
 34 78  1  0
M  CHG  1  34   1
M  END
> <Name>
BR010662

$$$$
BR010663
  SciTegic05062102053D

 86 89  0  0  1  0            999 V2000
    2.0032   -6.5057   -0.8077 C   0  0
    3.0434  -10.4520    4.3796 C   0  0
    3.4362   -9.9213    3.1464 C   0  0
    1.8381   -5.5754   -1.8339 C   0  0
    1.1376   -4.9056    0.7821 C   0  0
    1.2463   -8.8231    4.5910 C   0  0
    1.6529   -6.1708    0.5003 C   0  0
    1.9682   -9.9143    5.0907 C   0  0
    1.6272   -8.2771    3.3537 C   0  0
    2.7029   -8.8348    2.6684 C   0  0
    1.3228   -4.3103   -1.5521 C   0  0
    0.9725   -3.9753   -0.2440 C   0  0
    1.8234   -7.1331    1.5614 C   0  0
    1.5927  -10.4912    6.3633 C   0  0
    2.3915   -0.6495   -7.1568 C   0  0
    5.4920    0.5898   -5.2922 C   0  0
   -0.2241   -2.6529   -5.0771 C   0  0
    6.4976   -2.3688    0.0273 C   0  0
    3.1663   -1.4657   -5.0789 C   0  0  1  0  0  0
    4.2220   -0.9917   -4.0799 C   0  0  1  0  0  0
    1.9413   -2.0335   -4.3620 C   0  0  2  0  0  0
    4.5014   -2.0715   -3.0318 C   0  0  1  0  0  0
    2.3450   -3.0333   -3.2784 C   0  0  1  0  0  0
    2.0007    0.6078   -7.8727 C   0  0
    6.7860    0.7685   -6.0268 C   0  0
   -0.9592   -3.3703   -6.1684 C   0  0
    6.6067   -3.5645    0.9243 C   0  0
    0.6678   -9.0211    9.6030 C   0  0
    2.4765  -10.7712    9.4953 C   0  0
   -0.9485   -2.5909   -0.0227 C   0  0
    5.4607   -1.5895   -1.9479 C   0  0
    1.2470  -10.1872    8.8151 C   0  0
    1.0935   -7.2215    2.6507 N   0  0
    2.8057   -8.0834    1.5258 N   0  0
    1.6207   -9.7232    7.4766 N   0  0
    1.2237  -11.7861    6.4157 N   0  3
    2.3678   -1.7626   -7.6643 O   0  0
    4.6511    1.4690   -5.1617 O   0  0
   -0.7681   -2.1260   -4.1161 O   0  0
    7.0842   -1.3124    0.2194 O   0  0
    3.2855   -2.4463   -2.3821 O   0  0
    1.1656   -3.4063   -2.5667 O   0  0
    0.4680   -2.7431    0.0441 O   0  0
    2.7670   -0.3516   -5.8792 O   0  0
    5.4097   -0.6837   -4.8050 O   0  0
    1.1175   -2.6845   -5.3282 O   0  0
    5.6552   -2.6399   -1.0186 O   0  0
    2.4060   -7.4876   -1.0439 H   0  0
    3.5934  -11.2994    4.7837 H   0  0
    4.2712  -10.3358    2.5932 H   0  0
    2.1130   -5.8427   -2.8505 H   0  0
    0.8610   -4.6353    1.7991 H   0  0
    0.4105   -8.4053    5.1441 H   0  0
    3.5938   -2.2047   -5.7682 H   0  0
    3.8713   -0.0671   -3.6034 H   0  0
    1.3473   -1.2163   -3.9335 H   0  0
    4.9490   -2.9571   -3.5019 H   0  0
    2.7627   -3.9456   -3.7229 H   0  0
    0.9331    0.7962   -7.7355 H   0  0
    2.2435    0.5206   -8.9348 H   0  0
    2.5599    1.4508   -7.4564 H   0  0
    7.5590    1.1164   -5.3372 H   0  0
    6.6522    1.4791   -6.8463 H   0  0
    7.1000   -0.1915   -6.4469 H   0  0
   -1.2185   -2.6682   -6.9646 H   0  0
   -1.8577   -3.8419   -5.7625 H   0  0
   -0.3162   -4.1501   -6.5869 H   0  0
    5.8371   -3.5186    1.6987 H   0  0
    7.6028   -3.6024    1.3724 H   0  0
    6.4553   -4.4742    0.3359 H   0  0
    1.4114   -8.2273    9.7280 H   0  0
   -0.2067   -8.5935    9.0999 H   0  0
    0.3479   -9.3461   10.5991 H   0  0
    3.2517  -10.0071    9.6187 H   0  0
    2.8984  -11.5894    8.9024 H   0  0
    2.2364  -11.1601   10.4912 H   0  0
   -1.2175   -1.5622    0.2294 H   0  0
   -1.4237   -3.2846    0.6755 H   0  0
   -1.2824   -2.8139   -1.0388 H   0  0
    5.0373   -0.7269   -1.4332 H   0  0
    6.4187   -1.3192   -2.3920 H   0  0
    0.4868  -10.9679    8.7025 H   0  0
    3.4876   -8.2139    0.7900 H   0  0
    1.9113   -8.7570    7.3584 H   0  0
    1.1949  -12.3740    5.5904 H   0  0
    0.9534  -12.2050    7.2989 H   0  0
  1  4  2  0
  1  7  1  0
  2  3  2  0
  2  8  1  0
  3 10  1  0
  4 11  1  0
  5  7  2  0
  5 12  1  0
  6  8  2  0
  6  9  1  0
  7 13  1  0
  8 14  1  0
  9 10  2  0
  9 33  1  0
 10 34  1  0
 11 12  2  0
 11 42  1  0
 12 43  1  0
 13 33  2  0
 13 34  1  0
 14 35  1  0
 14 36  2  0
 15 24  1  0
 15 37  2  0
 15 44  1  0
 16 25  1  0
 16 38  2  0
 16 45  1  0
 17 26  1  0
 17 39  2  0
 17 46  1  0
 18 27  1  0
 18 40  2  0
 18 47  1  0
 19 20  1  0
 19 21  1  0
 19 44  1  0
 20 22  1  0
 20 45  1  0
 21 23  1  0
 21 46  1  0
 22 31  1  0
 22 41  1  0
 23 41  1  0
 23 42  1  0
 28 32  1  0
 29 32  1  0
 30 43  1  0
 31 47  1  0
 32 35  1  0
  1 48  1  0
  2 49  1  0
  3 50  1  0
  4 51  1  0
  5 52  1  0
  6 53  1  0
 19 54  1  0
 20 55  1  0
 21 56  1  0
 22 57  1  0
 23 58  1  0
 24 59  1  0
 24 60  1  0
 24 61  1  0
 25 62  1  0
 25 63  1  0
 25 64  1  0
 26 65  1  0
 26 66  1  0
 26 67  1  0
 27 68  1  0
 27 69  1  0
 27 70  1  0
 28 71  1  0
 28 72  1  0
 28 73  1  0
 29 74  1  0
 29 75  1  0
 29 76  1  0
 30 77  1  0
 30 78  1  0
 30 79  1  0
 31 80  1  0
 31 81  1  0
 32 82  1  0
 34 83  1  0
 35 84  1  0
 36 85  1  0
 36 86  1  0
M  CHG  1  36   1
M  END
> <Name>
BR010663

$$$$
BR010664
  SciTegic05062102053D

 86 89  0  0  1  0            999 V2000
    4.4913   -3.9493   -6.0773 C   0  0
    9.0561   -8.7036   -6.4302 C   0  0
    7.8616   -8.1183   -6.8629 C   0  0
    3.4689   -3.0157   -5.9082 C   0  0
    4.7805   -4.0666   -3.6816 C   0  0
    9.1612   -7.2317   -4.4936 C   0  0
    5.1471   -4.4749   -4.9640 C   0  0
    9.6960   -8.2698   -5.2669 C   0  0
    7.9619   -6.6321   -4.9136 C   0  0
    7.3475   -7.0862   -6.0772 C   0  0
    3.1024   -2.6074   -4.6258 C   0  0
    3.7581   -3.1329   -3.5124 C   0  0
    6.2042   -5.4408   -5.1391 C   0  0
   10.9304   -8.9005   -4.8523 C   0  0
   -3.8550   -1.3362   -3.9160 C   0  0
   -2.5432    0.8606   -6.8782 C   0  0
   -0.5843   -1.0950   -1.7954 C   0  0
   -1.8213   -1.6654  -10.3577 C   0  0
   -1.6402   -1.5938   -4.6984 C   0  0  1  0  0  0
   -1.6810   -1.2265   -6.1821 C   0  0  2  0  0  0
   -0.2438   -1.3752   -4.1169 C   0  0  2  0  0  0
   -0.5631   -1.9621   -6.9292 C   0  0  1  0  0  0
    0.8173   -2.0551   -4.9852 C   0  0  1  0  0  0
   -4.7473   -0.4095   -3.1474 C   0  0
   -2.2197    2.3226   -6.9416 C   0  0
   -0.5020   -1.8144   -0.4832 C   0  0
   -3.1680   -2.0806  -10.8675 C   0  0
   14.1158   -7.5752   -3.5840 C   0  0
   14.1133   -9.1689   -5.5349 C   0  0
    4.0940   -1.6148   -1.7129 C   0  0
   -0.4915   -1.5917   -8.4058 C   0  0
   13.3552   -8.6741   -4.3118 C   0  0
    7.2373   -5.6100   -4.3446 N   0  0
    6.2257   -6.3066   -6.1970 N   0  0
   12.0533   -8.1549   -4.7385 N   0  0
   10.9383  -10.2220   -4.5894 N   0  3
   -4.2223   -2.4004   -4.3953 O   0  0
   -3.5887    0.3719   -7.2848 O   0  0
   -0.9368    0.0704   -1.9169 O   0  0
   -0.9512   -1.1599  -11.0538 O   0  0
    0.7060   -1.6411   -6.3462 O   0  0
    2.0984   -1.6910   -4.4725 O   0  0
    3.4093   -2.7425   -2.2547 O   0  0
   -2.5965   -0.8099   -3.9905 O   0  0
   -1.5043    0.1865   -6.3061 O   0  0
   -0.2109   -1.9351   -2.8045 O   0  0
   -1.7212   -1.9360   -9.0186 O   0  0
    4.7651   -4.2573   -7.0835 H   0  0
    9.4866   -9.5110   -7.0189 H   0  0
    7.3637   -8.4520   -7.7661 H   0  0
    2.9623   -2.6102   -6.7796 H   0  0
    5.2858   -4.4712   -2.8070 H   0  0
    9.6589   -6.8946   -3.5893 H   0  0
   -1.9341   -2.6436   -4.5725 H   0  0
   -2.6664   -1.4675   -6.5972 H   0  0
   -0.0389   -0.3028   -4.0116 H   0  0
   -0.7173   -3.0464   -6.8546 H   0  0
    0.7350   -3.1473   -4.9181 H   0  0
   -4.7152   -0.6605   -2.0843 H   0  0
   -5.7693   -0.4773   -3.5288 H   0  0
   -4.3968    0.6191   -3.2735 H   0  0
   -2.5629    2.8183   -6.0302 H   0  0
   -2.6884    2.7683   -7.8227 H   0  0
   -1.1364    2.4512   -7.0217 H   0  0
   -1.4571   -2.2986   -0.2652 H   0  0
   -0.2367   -1.1106    0.3097 H   0  0
    0.2739   -2.5834   -0.5394 H   0  0
   -3.1314   -3.1177  -11.2098 H   0  0
   -3.4781   -1.4175  -11.6791 H   0  0
   -3.9007   -2.0061  -10.0587 H   0  0
   14.3046   -6.7258   -4.2486 H   0  0
   13.5575   -7.2107   -2.7144 H   0  0
   15.0820   -7.9447   -3.2233 H   0  0
   14.3023   -8.3464   -6.2334 H   0  0
   13.5408   -9.9379   -6.0637 H   0  0
   15.0840   -9.5957   -5.2588 H   0  0
    3.7210   -1.4102   -0.7063 H   0  0
    3.9331   -0.7461   -2.3562 H   0  0
    5.1626   -1.8372   -1.6647 H   0  0
    0.3172   -2.1403   -8.8898 H   0  0
   -0.3237   -0.5196   -8.5145 H   0  0
   13.1778   -9.5121   -3.6289 H   0  0
    5.5388   -6.3663   -6.9372 H   0  0
   11.9697   -7.1660   -4.9554 H   0  0
   10.1051  -10.7939   -4.6674 H   0  0
   11.7941  -10.6789   -4.2937 H   0  0
  1  4  2  0
  1  7  1  0
  2  3  2  0
  2  8  1  0
  3 10  1  0
  4 11  1  0
  5  7  2  0
  5 12  1  0
  6  8  2  0
  6  9  1  0
  7 13  1  0
  8 14  1  0
  9 10  2  0
  9 33  1  0
 10 34  1  0
 11 12  2  0
 11 42  1  0
 12 43  1  0
 13 33  2  0
 13 34  1  0
 14 35  1  0
 14 36  2  0
 15 24  1  0
 15 37  2  0
 15 44  1  0
 16 25  1  0
 16 38  2  0
 16 45  1  0
 17 26  1  0
 17 39  2  0
 17 46  1  0
 18 27  1  0
 18 40  2  0
 18 47  1  0
 19 20  1  0
 19 21  1  0
 19 44  1  0
 20 22  1  0
 20 45  1  0
 21 23  1  0
 21 46  1  0
 22 31  1  0
 22 41  1  0
 23 41  1  0
 23 42  1  0
 28 32  1  0
 29 32  1  0
 30 43  1  0
 31 47  1  0
 32 35  1  0
  1 48  1  0
  2 49  1  0
  3 50  1  0
  4 51  1  0
  5 52  1  0
  6 53  1  0
 19 54  1  0
 20 55  1  0
 21 56  1  0
 22 57  1  0
 23 58  1  0
 24 59  1  0
 24 60  1  0
 24 61  1  0
 25 62  1  0
 25 63  1  0
 25 64  1  0
 26 65  1  0
 26 66  1  0
 26 67  1  0
 27 68  1  0
 27 69  1  0
 27 70  1  0
 28 71  1  0
 28 72  1  0
 28 73  1  0
 29 74  1  0
 29 75  1  0
 29 76  1  0
 30 77  1  0
 30 78  1  0
 30 79  1  0
 31 80  1  0
 31 81  1  0
 32 82  1  0
 34 83  1  0
 35 84  1  0
 36 85  1  0
 36 86  1  0
M  CHG  1  36   1
M  END
> <Name>
BR010664

$$$$
BR010665
  SciTegic05062102053D

122126  0  0  1  0            999 V2000
    7.0776   -4.2178   -9.9701 C   0  0
   10.4077   -2.0655  -15.2467 C   0  0
    9.2120   -2.2491  -14.5444 C   0  0
    6.4008   -4.5575   -8.7987 C   0  0
    8.9354   -3.4003   -8.6597 C   0  0
   11.7316   -2.6902  -13.3013 C   0  0
    8.3450   -3.6393   -9.9006 C   0  0
   11.6462   -2.2816  -14.6382 C   0  0
   10.5404   -2.8793  -12.5805 C   0  0
    9.3212   -2.6562  -13.2143 C   0  0
    6.9913   -4.3185   -7.5578 C   0  0
    8.2587   -3.7399   -7.4883 C   0  0
    9.0449   -3.2884  -11.1123 C   0  0
   12.8609   -2.0806  -15.3981 C   0  0
   -1.0671    2.1466   -1.1363 C   0  0
    2.0436   -5.2254   -3.0131 C   0  0
   -0.7572   -1.3554    0.5847 C   0  0
   -0.0523    0.1030   -5.4743 C   0  0
    5.1907   -6.7917   -4.6932 C   0  0
    4.5955   -3.0774    0.8344 C   0  0
    5.5817    1.2335   -4.9684 C   0  0
    0.4788    0.5545   -1.9482 C   0  0  1  0  0  0
    3.1946   -3.8104   -4.5154 C   0  0  1  0  0  0
    0.8838   -0.2837   -0.7353 C   0  0  2  0  0  0
    3.3736   -2.2958   -4.6205 C   0  0  1  0  0  0
    0.6540   -0.2355   -3.2448 C   0  0  2  0  0  0
    4.4801   -4.5469   -4.8926 C   0  0  2  0  0  0
    2.2922   -0.8509   -0.9441 C   0  0  1  0  0  0
    3.9923   -1.9141   -5.9673 C   0  0  1  0  0  0
    5.0556   -4.0230   -6.2082 C   0  0  1  0  0  0
    2.0523   -0.8532   -3.3182 C   0  0  1  0  0  0
   -2.5316    2.4562   -1.0628 C   0  0
    1.7643   -5.4425   -1.5568 C   0  0
   -1.6978   -2.5220    0.6020 C   0  0
   -0.1850    1.1520   -6.5363 C   0  0
    4.7343   -8.2073   -4.8774 C   0  0
    5.9643   -3.5022    0.3961 C   0  0
    6.5346    1.4452   -3.8312 C   0  0
   16.0623   -0.4521  -14.6165 C   0  0
   14.8087    0.1930  -16.7041 C   0  0
    9.6546   -4.5430   -5.7384 C   0  0
    2.7412   -1.7604    0.1933 C   0  0
    4.2972   -0.4222   -6.0605 C   0  0
   15.0347   -0.8836  -15.6527 C   0  0
   10.3488   -3.2715  -11.2756 N   0  0
    8.3823   -2.9254  -12.2517 N   0  0
   13.7637   -1.1640  -14.9800 N   0  0
   13.0689   -2.8103  -16.5116 N   0  3
   -0.1918    2.8574   -0.6611 O   0  0
    1.6054   -5.9353   -3.9082 O   0  0
   -0.6545   -0.5445    1.4953 O   0  0
   -0.3744   -1.0679   -5.6237 O   0  0
    6.3071   -6.4769   -4.3036 O   0  0
    4.0670   -3.4388    1.8771 O   0  0
    5.2089    2.1206   -5.7241 O   0  0
    2.3325   -1.6237   -2.1504 O   0  0
    5.2271   -2.6088   -6.1508 O   0  0
    6.3177   -4.6557   -6.4159 O   0  0
    8.8462   -3.5016   -6.2825 O   0  0
   -0.8765    0.9704   -1.8046 O   0  0
    2.8471   -4.1334   -3.1679 O   0  0
   -0.0555   -1.3505   -0.5852 O   0  0
    0.4733    0.6579   -4.3432 O   0  0
    4.1797   -5.9357   -5.0233 O   0  0
    4.0422   -2.2393   -0.0972 O   0  0
    5.2022   -0.0817   -5.0261 O   0  0
    2.0984   -1.6910   -4.4725 O   0  0
    6.6037   -4.4107  -10.9296 H   0  0
   10.3605   -1.7474  -16.2861 H   0  0
    8.2495   -2.0806  -15.0138 H   0  0
    5.4139   -5.0078   -8.8599 H   0  0
    9.9238   -2.9499   -8.5954 H   0  0
   12.6946   -2.8581  -12.8284 H   0  0
    1.0888    1.4661   -1.9840 H   0  0
    2.3557   -4.1426   -5.1397 H   0  0
    0.8284    0.3270    0.1731 H   0  0
    4.0047   -1.9535   -3.7902 H   0  0
   -0.1221   -1.0060   -3.3290 H   0  0
    5.2153   -4.4532   -4.0833 H   0  0
    3.0146   -0.0291   -1.0319 H   0  0
    3.3092   -2.1657   -6.7894 H   0  0
    4.4098   -4.2929   -7.0535 H   0  0
    2.8161   -0.0757   -3.4459 H   0  0
   -2.8299    3.0471   -1.9322 H   0  0
   -2.7510    2.9944   -0.1372 H   0  0
   -3.1003    1.5217   -1.0647 H   0  0
    2.5261   -6.0973   -1.1266 H   0  0
    0.7684   -5.8749   -1.4306 H   0  0
    1.7949   -4.4819   -1.0345 H   0  0
   -2.6588   -2.2301    0.1714 H   0  0
   -1.8270   -2.8792    1.6268 H   0  0
   -1.2789   -3.3344    0.0010 H   0  0
   -1.1653    1.6297   -6.4654 H   0  0
   -0.0462    0.7013   -7.5223 H   0  0
    0.5857    1.9146   -6.3911 H   0  0
    4.2875   -8.5764   -3.9509 H   0  0
    5.5792   -8.8338   -5.1743 H   0  0
    3.9791   -8.2448   -5.6678 H   0  0
    5.8961   -4.4162   -0.1989 H   0  0
    6.6019   -3.6578    1.2700 H   0  0
    6.4074   -2.7160   -0.2220 H   0  0
    5.9796    1.6980   -2.9244 H   0  0
    7.2428    2.2385   -4.0835 H   0  0
    7.0951    0.5232   -3.6513 H   0  0
   15.7476    0.4689  -14.1152 H   0  0
   16.2082   -1.2239  -13.8524 H   0  0
   17.0343   -0.2671  -15.0868 H   0  0
   14.4723    1.1259  -16.2385 H   0  0
   14.0464   -0.1200  -17.4251 H   0  0
   15.7295    0.4139  -17.2554 H   0  0
   10.0624   -4.2238   -4.7762 H   0  0
   10.4670   -4.7748   -6.4317 H   0  0
    9.0375   -5.4328   -5.5928 H   0  0
    2.0595   -2.6064    0.2865 H   0  0
    2.7644   -1.2032    1.1305 H   0  0
    3.3794    0.1533   -5.9401 H   0  0
    4.7504   -0.1944   -7.0253 H   0  0
   15.3699   -1.8053  -16.1406 H   0  0
    7.3793   -2.8659  -12.3692 H   0  0
   13.5363   -0.6515  -14.1330 H   0  0
   12.4037   -3.5026  -16.8366 H   0  0
   13.9169   -2.6849  -17.0536 H   0  0
  1  4  2  0
  1  7  1  0
  2  3  2  0
  2  8  1  0
  3 10  1  0
  4 11  1  0
  5  7  2  0
  5 12  1  0
  6  8  2  0
  6  9  1  0
  7 13  1  0
  8 14  1  0
  9 10  2  0
  9 45  1  0
 10 46  1  0
 11 12  2  0
 11 58  1  0
 12 59  1  0
 13 45  2  0
 13 46  1  0
 14 47  1  0
 14 48  2  0
 15 32  1  0
 15 49  2  0
 15 60  1  0
 16 33  1  0
 16 50  2  0
 16 61  1  0
 17 34  1  0
 17 51  2  0
 17 62  1  0
 18 35  1  0
 18 52  2  0
 18 63  1  0
 19 36  1  0
 19 53  2  0
 19 64  1  0
 20 37  1  0
 20 54  2  0
 20 65  1  0
 21 38  1  0
 21 55  2  0
 21 66  1  0
 22 24  1  0
 22 26  1  0
 22 60  1  0
 23 25  1  0
 23 27  1  0
 23 61  1  0
 24 28  1  0
 24 62  1  0
 25 29  1  0
 25 67  1  0
 26 31  1  0
 26 63  1  0
 27 30  1  0
 27 64  1  0
 28 42  1  0
 28 56  1  0
 29 43  1  0
 29 57  1  0
 30 57  1  0
 30 58  1  0
 31 56  1  0
 31 67  1  0
 39 44  1  0
 40 44  1  0
 41 59  1  0
 42 65  1  0
 43 66  1  0
 44 47  1  0
  1 68  1  0
  2 69  1  0
  3 70  1  0
  4 71  1  0
  5 72  1  0
  6 73  1  0
 22 74  1  0
 23 75  1  0
 24 76  1  0
 25 77  1  0
 26 78  1  0
 27 79  1  0
 28 80  1  0
 29 81  1  0
 30 82  1  0
 31 83  1  0
 32 84  1  0
 32 85  1  0
 32 86  1  0
 33 87  1  0
 33 88  1  0
 33 89  1  0
 34 90  1  0
 34 91  1  0
 34 92  1  0
 35 93  1  0
 35 94  1  0
 35 95  1  0
 36 96  1  0
 36 97  1  0
 36 98  1  0
 37 99  1  0
 37100  1  0
 37101  1  0
 38102  1  0
 38103  1  0
 38104  1  0
 39105  1  0
 39106  1  0
 39107  1  0
 40108  1  0
 40109  1  0
 40110  1  0
 41111  1  0
 41112  1  0
 41113  1  0
 42114  1  0
 42115  1  0
 43116  1  0
 43117  1  0
 44118  1  0
 46119  1  0
 47120  1  0
 48121  1  0
 48122  1  0
M  CHG  1  48   1
M  END
> <Name>
BR010665

$$$$
BR010666
  SciTegic05062102053D

 87 90  0  0  1  0            999 V2000
    5.0686   -1.0608   -2.2887 C   0  0
   10.1831   -4.7127   -0.2712 C   0  0
    8.8200   -4.5601   -0.5458 C   0  0
    3.9775   -0.2461   -2.5910 C   0  0
    6.0925    0.7606   -1.0757 C   0  0
   10.5690   -2.3183   -0.4847 C   0  0
    6.1261   -0.5575   -1.5309 C   0  0
   11.0438   -3.6131   -0.2407 C   0  0
    9.2024   -2.1465   -0.7625 C   0  0
    8.3694   -3.2616   -0.7858 C   0  0
    3.9440    1.0720   -2.1358 C   0  0
    5.0015    1.5753   -1.3781 C   0  0
    7.2542   -1.4004   -1.2180 C   0  0
   12.4478   -3.8120    0.0468 C   0  0
    1.6802    4.7572   -0.8381 C   0  0
   -2.6191    3.3975   -0.5925 C   0  0
   -3.5931    0.9629   -2.6631 C   0  0
    0.0144   -2.9420   -4.6492 C   0  0
    0.7163    2.6431   -1.7236 C   0  0  2  0  0  0
   -0.7212    2.2353   -1.3870 C   0  0  2  0  0  0
   -1.2594    1.2019   -2.3791 C   0  0  1  0  0  0
   -0.2649    0.0511   -2.5531 C   0  0  1  0  0  0
    1.5960    1.4133   -1.9744 C   0  0  1  0  0  0
    2.2163    5.4000    0.3979 C   0  0
   -3.3905    4.6722   -0.7545 C   0  0
   -4.8208    0.3971   -2.0161 C   0  0
    1.1260   -3.9472   -4.6483 C   0  0
   15.5243   -2.4604   -1.4434 C   0  0
   15.2544   -4.9507   -1.1758 C   0  0
    5.5507    3.8546   -1.7767 C   0  0
   -0.7112   -0.9414   -3.6219 C   0  0
   14.8209   -3.5770   -0.6854 C   0  0
    8.4920   -0.9995   -1.0330 N   0  0
    7.1295   -2.7548   -1.0795 N   0  0
   13.3734   -3.4431   -0.8681 N   0  0
    1.2697    3.4519   -0.6572 N   0  0
   12.8071   -4.3644    1.2221 N   0  3
    1.6389    5.3968   -1.8825 O   0  0
   -2.9247    2.5062    0.1882 O   0  0
   -3.5936    1.5537   -3.7346 O   0  0
   -0.9664   -3.0056   -5.3780 O   0  0
    1.0034    0.5684   -2.9593 O   0  0
    2.8687    1.8615   -2.4389 O   0  0
    4.9805    2.8608   -0.9274 O   0  0
   -1.5487    3.3993   -1.4384 O   0  0
   -2.5021    0.7154   -1.8792 O   0  0
    0.2652   -1.9618   -3.7254 O   0  0
    5.0795   -2.0860   -2.6509 H   0  0
   10.5698   -5.7115   -0.0799 H   0  0
    8.1501   -5.4120   -0.5715 H   0  0
    3.1572   -0.6444   -3.1817 H   0  0
    6.9124    1.1620   -0.4837 H   0  0
   11.2384   -1.4636   -0.4610 H   0  0
    0.7178    3.2901   -2.6100 H   0  0
   -0.7825    1.8464   -0.3623 H   0  0
   -1.4552    1.6979   -3.3385 H   0  0
   -0.1474   -0.5026   -1.6123 H   0  0
    1.7561    0.8463   -1.0482 H   0  0
    3.3027    5.2542    0.5104 H   0  0
    2.0670    6.4916    0.4027 H   0  0
    1.7767    5.0434    1.3432 H   0  0
   -3.0057    5.4285   -0.0660 H   0  0
   -4.4523    4.4889   -0.5718 H   0  0
   -3.2722    5.0399   -1.7779 H   0  0
   -4.9732   -0.6331   -2.3470 H   0  0
   -5.6884    1.0139   -2.2638 H   0  0
   -4.6918    0.3989   -0.9298 H   0  0
    1.8968   -3.6485   -5.3630 H   0  0
    0.7321   -4.9359   -4.8969 H   0  0
    1.5736   -3.9920   -3.6512 H   0  0
   15.3224   -2.5307   -2.5171 H   0  0
   15.1955   -1.4738   -1.0981 H   0  0
   16.6087   -2.5152   -1.2979 H   0  0
   15.0480   -5.0639   -2.2458 H   0  0
   14.7188   -5.7423   -0.6417 H   0  0
   16.3291   -5.1072   -1.0298 H   0  0
    5.4688    4.8339   -1.2988 H   0  0
    5.0262    3.8603   -2.7356 H   0  0
    6.6047    3.6192   -1.9416 H   0  0
   -0.8069   -0.4357   -4.5828 H   0  0
   -1.6672   -1.3846   -3.3428 H   0  0
   15.0366   -3.4869    0.3848 H   0  0
    6.2772   -3.2915   -1.1743 H   0  0
   13.0261   -3.0353   -1.7312 H   0  0
    1.3597    3.0401    0.2653 H   0  0
   12.1261   -4.6437    1.9190 H   0  0
   13.7870   -4.5069    1.4413 H   0  0
  1  4  2  0
  1  7  1  0
  2  3  2  0
  2  8  1  0
  3 10  1  0
  4 11  1  0
  5  7  2  0
  5 12  1  0
  6  8  2  0
  6  9  1  0
  7 13  1  0
  8 14  1  0
  9 10  2  0
  9 33  1  0
 10 34  1  0
 11 12  2  0
 11 43  1  0
 12 44  1  0
 13 33  2  0
 13 34  1  0
 14 35  1  0
 14 37  2  0
 15 24  1  0
 15 36  1  0
 15 38  2  0
 16 25  1  0
 16 39  2  0
 16 45  1  0
 17 26  1  0
 17 40  2  0
 17 46  1  0
 18 27  1  0
 18 41  2  0
 18 47  1  0
 19 20  1  0
 19 23  1  0
 19 36  1  0
 20 21  1  0
 20 45  1  0
 21 22  1  0
 21 46  1  0
 22 31  1  0
 22 42  1  0
 23 42  1  0
 23 43  1  0
 28 32  1  0
 29 32  1  0
 30 44  1  0
 31 47  1  0
 32 35  1  0
  1 48  1  0
  2 49  1  0
  3 50  1  0
  4 51  1  0
  5 52  1  0
  6 53  1  0
 19 54  1  0
 20 55  1  0
 21 56  1  0
 22 57  1  0
 23 58  1  0
 24 59  1  0
 24 60  1  0
 24 61  1  0
 25 62  1  0
 25 63  1  0
 25 64  1  0
 26 65  1  0
 26 66  1  0
 26 67  1  0
 27 68  1  0
 27 69  1  0
 27 70  1  0
 28 71  1  0
 28 72  1  0
 28 73  1  0
 29 74  1  0
 29 75  1  0
 29 76  1  0
 30 77  1  0
 30 78  1  0
 30 79  1  0
 31 80  1  0
 31 81  1  0
 32 82  1  0
 34 83  1  0
 35 84  1  0
 36 85  1  0
 37 86  1  0
 37 87  1  0
M  CHG  1  37   1
M  END
> <Name>
BR010666

$$$$
BR010667
  SciTegic05062102053D

 57 60  0  0  1  0            999 V2000
    2.0032   -6.5057   -0.8077 C   0  0
    3.0434  -10.4520    4.3796 C   0  0
    3.4362   -9.9213    3.1464 C   0  0
    1.8381   -5.5754   -1.8339 C   0  0
    1.1376   -4.9056    0.7821 C   0  0
    1.2463   -8.8231    4.5910 C   0  0
    1.6529   -6.1708    0.5003 C   0  0
    1.9682   -9.9143    5.0907 C   0  0
    1.6272   -8.2771    3.3537 C   0  0
    2.7029   -8.8348    2.6684 C   0  0
    1.3228   -4.3103   -1.5521 C   0  0
    0.9725   -3.9753   -0.2440 C   0  0
    1.8234   -7.1331    1.5614 C   0  0
    1.5927  -10.4912    6.3633 C   0  0
    3.1663   -1.4657   -5.0789 C   0  0  1  0  0  0
    4.2220   -0.9917   -4.0799 C   0  0  1  0  0  0
    1.9413   -2.0335   -4.3620 C   0  0  2  0  0  0
    4.5014   -2.0715   -3.0318 C   0  0  1  0  0  0
    2.3450   -3.0333   -3.2784 C   0  0  1  0  0  0
   -0.9485   -2.5909   -0.0227 C   0  0
    5.4607   -1.5895   -1.9479 C   0  0
    1.0935   -7.2215    2.6507 N   0  0
    2.8057   -8.0834    1.5258 N   0  0
    2.2708  -11.5378    6.8624 N   0  0
    0.5626   -9.9860    7.0619 N   0  3
    3.2855   -2.4463   -2.3821 O   0  0
    2.7670   -0.3516   -5.8792 O   0  0
    5.4097   -0.6837   -4.8050 O   0  0
    1.1175   -2.6845   -5.3282 O   0  0
    5.6552   -2.6399   -1.0186 O   0  0
    1.1656   -3.4063   -2.5667 O   0  0
    0.4680   -2.7431    0.0441 O   0  0
    2.4060   -7.4876   -1.0439 H   0  0
    3.5934  -11.2994    4.7837 H   0  0
    4.2712  -10.3358    2.5932 H   0  0
    2.1130   -5.8427   -2.8505 H   0  0
    0.8610   -4.6353    1.7991 H   0  0
    0.4105   -8.4053    5.1441 H   0  0
    3.5938   -2.2047   -5.7682 H   0  0
    3.8713   -0.0671   -3.6034 H   0  0
    1.3473   -1.2163   -3.9335 H   0  0
    4.9490   -2.9571   -3.5019 H   0  0
    2.7627   -3.9456   -3.7229 H   0  0
   -1.2175   -1.5622    0.2294 H   0  0
   -1.4237   -3.2846    0.6755 H   0  0
   -1.2824   -2.8139   -1.0388 H   0  0
    5.0373   -0.7269   -1.4332 H   0  0
    6.4187   -1.3192   -2.3920 H   0  0
    3.4876   -8.2139    0.7900 H   0  0
    3.0488  -11.9403    6.3517 H   0  0
    2.0158  -11.9576    7.7497 H   0  0
    0.0390   -9.1924    6.7096 H   0  0
    0.2902  -10.3760    7.9577 H   0  0
    2.4057    0.3076   -5.2681 H   0  0
    5.6816   -1.5014   -5.2497 H   0  0
    1.6573   -3.3880   -5.7198 H   0  0
    6.2681   -2.3104   -0.3394 H   0  0
  1  4  2  0
  1  7  1  0
  2  3  2  0
  2  8  1  0
  3 10  1  0
  4 11  1  0
  5  7  2  0
  5 12  1  0
  6  8  2  0
  6  9  1  0
  7 13  1  0
  8 14  1  0
  9 10  2  0
  9 22  1  0
 10 23  1  0
 11 12  2  0
 11 31  1  0
 12 32  1  0
 13 22  2  0
 13 23  1  0
 14 24  1  0
 14 25  2  0
 15 16  1  0
 15 17  1  0
 15 27  1  0
 16 18  1  0
 16 28  1  0
 17 19  1  0
 17 29  1  0
 18 21  1  0
 18 26  1  0
 19 26  1  0
 19 31  1  0
 20 32  1  0
 21 30  1  0
  1 33  1  0
  2 34  1  0
  3 35  1  0
  4 36  1  0
  5 37  1  0
  6 38  1  0
 15 39  1  0
 16 40  1  0
 17 41  1  0
 18 42  1  0
 19 43  1  0
 20 44  1  0
 20 45  1  0
 20 46  1  0
 21 47  1  0
 21 48  1  0
 23 49  1  0
 24 50  1  0
 24 51  1  0
 25 52  1  0
 25 53  1  0
 27 54  1  0
 28 55  1  0
 29 56  1  0
 30 57  1  0
M  CHG  1  25   1
M  END
> <Name>
BR010667

$$$$
BR010668
  SciTegic05062102053D

 57 60  0  0  1  0            999 V2000
    4.4913   -3.9493   -6.0773 C   0  0
    9.6593   -8.0361   -6.4705 C   0  0
    8.9295   -6.9366   -6.9343 C   0  0
    3.4689   -3.0157   -5.9082 C   0  0
    4.7805   -4.0666   -3.6816 C   0  0
    8.3247   -8.1573   -4.4378 C   0  0
    5.1471   -4.4749   -4.9640 C   0  0
    9.3640   -8.6372   -5.2448 C   0  0
    7.5812   -7.0533   -4.8881 C   0  0
    7.8992   -6.4757   -6.1141 C   0  0
    3.1024   -2.6074   -4.6258 C   0  0
    3.7581   -3.1329   -3.5124 C   0  0
    6.2042   -5.4408   -5.1391 C   0  0
   10.1422   -9.7727   -4.7994 C   0  0
    1.2643    1.8685   -5.2922 C   0  0  1  0  0  0
    2.5826    2.4439   -4.7736 C   0  0  2  0  0  0
    1.0591    0.4361   -4.8001 C   0  0  2  0  0  0
    3.7331    1.4891   -5.1107 C   0  0  1  0  0  0
    2.2977   -0.4168   -5.0835 C   0  0  1  0  0  0
    2.3927   -3.4988   -1.5999 C   0  0
    5.0751    1.9586   -4.5618 C   0  0
    6.5258   -6.3972   -4.2972 N   0  0
    7.0026   -5.4469   -6.2489 N   0  0
   11.1439  -10.2498   -5.5566 N   0  0
    9.8736  -10.3622   -3.6227 N   0  3
    3.4722    0.1953   -4.5524 O   0  0
    0.1860    2.6955   -4.8634 O   0  0
    2.4819    2.6073   -3.3572 O   0  0
   -0.0636   -0.1179   -5.4853 O   0  0
    6.1093    1.3032   -5.2739 O   0  0
    2.0984   -1.6910   -4.4725 O   0  0
    3.4093   -2.7425   -2.2547 O   0  0
    4.7651   -4.2573   -7.0835 H   0  0
   10.4709   -8.4219   -7.0839 H   0  0
    9.1576   -6.4673   -7.8845 H   0  0
    2.9623   -2.6102   -6.7796 H   0  0
    5.2858   -4.4712   -2.8070 H   0  0
    8.0953   -8.6247   -3.4849 H   0  0
    1.2624    1.8875   -6.3894 H   0  0
    2.7481    3.4384   -5.2036 H   0  0
    0.8142    0.4323   -3.7309 H   0  0
    3.8246    1.3873   -6.1998 H   0  0
    2.4176   -0.5845   -6.1613 H   0  0
    2.2109   -3.0825   -0.6061 H   0  0
    2.7092   -4.5416   -1.5175 H   0  0
    1.4741   -3.4443   -2.1890 H   0  0
    5.1537    1.7088   -3.5031 H   0  0
    5.1760    3.0365   -4.6926 H   0  0
    6.9452   -4.8097   -7.0326 H   0  0
   11.3629   -9.8254   -6.4510 H   0  0
   11.6943  -11.0490   -5.2615 H   0  0
    9.1269  -10.0168   -3.0302 H   0  0
   10.4132  -11.1557   -3.2943 H   0  0
    0.3492    3.5767   -5.2340 H   0  0
    3.3302    2.9718   -3.0645 H   0  0
    0.1528   -0.0947   -6.4297 H   0  0
    6.9524    1.6184   -4.9063 H   0  0
  1  4  2  0
  1  7  1  0
  2  3  2  0
  2  8  1  0
  3 10  1  0
  4 11  1  0
  5  7  2  0
  5 12  1  0
  6  8  2  0
  6  9  1  0
  7 13  1  0
  8 14  1  0
  9 10  2  0
  9 22  1  0
 10 23  1  0
 11 12  2  0
 11 31  1  0
 12 32  1  0
 13 22  2  0
 13 23  1  0
 14 24  1  0
 14 25  2  0
 15 16  1  0
 15 17  1  0
 15 27  1  0
 16 18  1  0
 16 28  1  0
 17 19  1  0
 17 29  1  0
 18 21  1  0
 18 26  1  0
 19 26  1  0
 19 31  1  0
 20 32  1  0
 21 30  1  0
  1 33  1  0
  2 34  1  0
  3 35  1  0
  4 36  1  0
  5 37  1  0
  6 38  1  0
 15 39  1  0
 16 40  1  0
 17 41  1  0
 18 42  1  0
 19 43  1  0
 20 44  1  0
 20 45  1  0
 20 46  1  0
 21 47  1  0
 21 48  1  0
 23 49  1  0
 24 50  1  0
 24 51  1  0
 25 52  1  0
 25 53  1  0
 27 54  1  0
 28 55  1  0
 29 56  1  0
 30 57  1  0
M  CHG  1  25   1
M  END
> <Name>
BR010668

$$$$
BR010669
  SciTegic05062102053D

 78 82  0  0  1  0            999 V2000
    7.0776   -4.2178   -9.9701 C   0  0
   10.4077   -2.0655  -15.2467 C   0  0
    9.2120   -2.2491  -14.5444 C   0  0
    6.4008   -4.5575   -8.7987 C   0  0
    8.9354   -3.4003   -8.6597 C   0  0
   11.7316   -2.6902  -13.3013 C   0  0
    8.3450   -3.6393   -9.9006 C   0  0
   11.6462   -2.2816  -14.6382 C   0  0
   10.5404   -2.8793  -12.5805 C   0  0
    9.3212   -2.6562  -13.2143 C   0  0
    6.9913   -4.3185   -7.5578 C   0  0
    8.2587   -3.7399   -7.4883 C   0  0
    9.0449   -3.2884  -11.1123 C   0  0
   12.8609   -2.0806  -15.3981 C   0  0
    0.4788    0.5545   -1.9482 C   0  0  1  0  0  0
    3.1946   -3.8104   -4.5154 C   0  0  1  0  0  0
    0.8838   -0.2837   -0.7353 C   0  0  2  0  0  0
    3.3736   -2.2958   -4.6205 C   0  0  1  0  0  0
    0.6540   -0.2355   -3.2448 C   0  0  2  0  0  0
    4.4801   -4.5469   -4.8926 C   0  0  2  0  0  0
    2.2922   -0.8509   -0.9441 C   0  0  1  0  0  0
    3.9923   -1.9141   -5.9673 C   0  0  1  0  0  0
    5.0556   -4.0230   -6.2082 C   0  0  1  0  0  0
    2.0523   -0.8532   -3.3182 C   0  0  1  0  0  0
    9.6546   -4.5430   -5.7384 C   0  0
    2.7412   -1.7604    0.1933 C   0  0
    4.2972   -0.4222   -6.0605 C   0  0
   10.3488   -3.2715  -11.2756 N   0  0
    8.3823   -2.9254  -12.2517 N   0  0
   12.8033   -1.6885  -16.6816 N   0  0
   14.0607   -2.2819  -14.8288 N   0  3
    2.3325   -1.6237   -2.1504 O   0  0
    5.2271   -2.6088   -6.1508 O   0  0
   -0.8765    0.9704   -1.8046 O   0  0
    2.8471   -4.1334   -3.1679 O   0  0
   -0.0555   -1.3505   -0.5852 O   0  0
    0.4733    0.6579   -4.3432 O   0  0
    4.1797   -5.9357   -5.0233 O   0  0
    4.1533   -1.8653    0.1580 O   0  0
    4.8739   -0.1583   -7.3264 O   0  0
    6.3177   -4.6557   -6.4159 O   0  0
    8.8462   -3.5016   -6.2825 O   0  0
    2.0984   -1.6910   -4.4725 O   0  0
    6.6037   -4.4107  -10.9296 H   0  0
   10.3605   -1.7474  -16.2861 H   0  0
    8.2495   -2.0806  -15.0138 H   0  0
    5.4139   -5.0078   -8.8599 H   0  0
    9.9238   -2.9499   -8.5954 H   0  0
   12.6946   -2.8581  -12.8284 H   0  0
    1.0888    1.4661   -1.9840 H   0  0
    2.3557   -4.1426   -5.1397 H   0  0
    0.8284    0.3270    0.1731 H   0  0
    4.0047   -1.9535   -3.7902 H   0  0
   -0.1221   -1.0060   -3.3290 H   0  0
    5.2153   -4.4532   -4.0833 H   0  0
    3.0146   -0.0291   -1.0319 H   0  0
    3.3092   -2.1657   -6.7894 H   0  0
    4.4098   -4.2929   -7.0535 H   0  0
    2.8161   -0.0757   -3.4459 H   0  0
   10.0624   -4.2238   -4.7762 H   0  0
   10.4670   -4.7748   -6.4317 H   0  0
    9.0375   -5.4328   -5.5928 H   0  0
    2.3042   -2.7523    0.0733 H   0  0
    2.4361   -1.3388    1.1517 H   0  0
    5.0000   -0.1366   -5.2778 H   0  0
    3.3772    0.1530   -5.9566 H   0  0
    7.3793   -2.8659  -12.3692 H   0  0
   11.9097   -1.5350  -17.1353 H   0  0
   13.6454   -1.5498  -17.2296 H   0  0
   14.1309   -2.5719  -13.8598 H   0  0
   14.9213   -2.1404  -15.3466 H   0  0
   -0.9197    1.4955   -0.9903 H   0  0
    3.5804   -3.8242   -2.6154 H   0  0
    0.2306   -1.8581    0.1885 H   0  0
    1.1507    1.3450   -4.2520 H   0  0
    3.5116   -6.0075   -5.7218 H   0  0
    4.4142   -2.4486    0.8908 H   0  0
    5.0590    0.7957   -7.3626 H   0  0
  1  4  2  0
  1  7  1  0
  2  3  2  0
  2  8  1  0
  3 10  1  0
  4 11  1  0
  5  7  2  0
  5 12  1  0
  6  8  2  0
  6  9  1  0
  7 13  1  0
  8 14  1  0
  9 10  2  0
  9 28  1  0
 10 29  1  0
 11 12  2  0
 11 41  1  0
 12 42  1  0
 13 28  2  0
 13 29  1  0
 14 30  1  0
 14 31  2  0
 15 17  1  0
 15 19  1  0
 15 34  1  0
 16 18  1  0
 16 20  1  0
 16 35  1  0
 17 21  1  0
 17 36  1  0
 18 22  1  0
 18 43  1  0
 19 24  1  0
 19 37  1  0
 20 23  1  0
 20 38  1  0
 21 26  1  0
 21 32  1  0
 22 27  1  0
 22 33  1  0
 23 33  1  0
 23 41  1  0
 24 32  1  0
 24 43  1  0
 25 42  1  0
 26 39  1  0
 27 40  1  0
  1 44  1  0
  2 45  1  0
  3 46  1  0
  4 47  1  0
  5 48  1  0
  6 49  1  0
 15 50  1  0
 16 51  1  0
 17 52  1  0
 18 53  1  0
 19 54  1  0
 20 55  1  0
 21 56  1  0
 22 57  1  0
 23 58  1  0
 24 59  1  0
 25 60  1  0
 25 61  1  0
 25 62  1  0
 26 63  1  0
 26 64  1  0
 27 65  1  0
 27 66  1  0
 29 67  1  0
 30 68  1  0
 30 69  1  0
 31 70  1  0
 31 71  1  0
 34 72  1  0
 35 73  1  0
 36 74  1  0
 37 75  1  0
 38 76  1  0
 39 77  1  0
 40 78  1  0
M  CHG  1  31   1
M  END
> <Name>
BR010669

$$$$
BR010670
  SciTegic05062102053D

 63 66  0  0  1  0            999 V2000
    5.8070   -0.2788   -2.8714 C   0  0
   10.6412   -4.3925   -1.0621 C   0  0
    9.5864   -4.0404   -1.9107 C   0  0
    4.7082    0.5275   -3.1679 C   0  0
    5.3775    0.0037   -0.5107 C   0  0
   10.0439   -2.6456    0.5253 C   0  0
    6.1417   -0.5408   -1.5428 C   0  0
   10.8676   -3.7089    0.1348 C   0  0
    8.9796   -2.2783   -0.3153 C   0  0
    8.7791   -2.9785   -1.5016 C   0  0
    3.9440    1.0720   -2.1358 C   0  0
    4.2786    0.8101   -0.8072 C   0  0
    7.2780   -1.3751   -1.2364 C   0  0
   11.9695   -4.1029    0.9857 C   0  0
    0.0390    2.6492   -0.5069 C   0  0
    0.5043    1.9256   -2.8399 C   0  0  2  0  0  0
   -0.6292    1.4516   -3.7546 C   0  0  2  0  0  0
   -0.2255    1.5156   -5.2293 C   0  0  1  0  0  0
    1.1315    0.8416   -5.4476 C   0  0  1  0  0  0
    1.8329    1.2598   -3.2146 C   0  0  1  0  0  0
   -0.3040    2.1429    0.8548 C   0  0
    3.9378    2.6118    0.7072 C   0  0
    1.6243    0.9867   -6.8839 C   0  0
    8.0375   -1.2862   -0.1676 N   0  0
    7.6844   -2.3794   -2.0702 N   0  0
   12.7729   -5.1194    0.6313 N   0  0
    0.1759    1.6558   -1.4553 N   0  0
   12.2034   -3.4558    2.1393 N   0  3
    0.1695    3.8541   -0.6884 O   0  0
    2.1110    1.4463   -4.6013 O   0  0
   -1.7635    2.2962   -3.5494 O   0  0
   -1.2356    0.8610   -5.9922 O   0  0
    2.8832    0.3482   -6.9953 O   0  0
    2.8687    1.8615   -2.4389 O   0  0
    3.5401    1.3357    0.2098 O   0  0
    6.3925   -0.6958   -3.6873 H   0  0
   11.2920   -5.2156   -1.3498 H   0  0
    9.4094   -4.5683   -2.8408 H   0  0
    4.4530    0.7276   -4.2049 H   0  0
    5.6304   -0.1953    0.5286 H   0  0
   10.2202   -2.1144    1.4557 H   0  0
    0.6011    3.0167   -2.9084 H   0  0
   -0.9391    0.4325   -3.4891 H   0  0
   -0.1954    2.5664   -5.5448 H   0  0
    1.0698   -0.2315   -5.2233 H   0  0
    1.8172    0.1873   -2.9812 H   0  0
    0.5905    1.9252    1.4602 H   0  0
   -0.8820    2.8745    1.4421 H   0  0
   -0.9012    1.2173    0.8769 H   0  0
    3.2664    2.9146    1.5144 H   0  0
    3.9058    3.3455   -0.1023 H   0  0
    4.9579    2.5412    1.0920 H   0  0
    1.7320    2.0419   -7.1356 H   0  0
    0.9194    0.5154   -7.5689 H   0  0
    7.2566   -2.6391   -2.9494 H   0  0
   12.6139   -5.6269   -0.2320 H   0  0
   13.5452   -5.4120    1.2200 H   0  0
    0.0402    0.6922   -1.1694 H   0  0
   11.6152   -2.6812    2.4258 H   0  0
   12.9746   -3.7167    2.7441 H   0  0
   -1.4788    3.1942   -3.7751 H   0  0
   -1.2740   -0.0538   -5.6726 H   0  0
    3.1761    0.4536   -7.9166 H   0  0
  1  4  2  0
  1  7  1  0
  2  3  2  0
  2  8  1  0
  3 10  1  0
  4 11  1  0
  5  7  2  0
  5 12  1  0
  6  8  2  0
  6  9  1  0
  7 13  1  0
  8 14  1  0
  9 10  2  0
  9 24  1  0
 10 25  1  0
 11 12  2  0
 11 34  1  0
 12 35  1  0
 13 24  2  0
 13 25  1  0
 14 26  1  0
 14 28  2  0
 15 21  1  0
 15 27  1  0
 15 29  2  0
 16 17  1  0
 16 20  1  0
 16 27  1  0
 17 18  1  0
 17 31  1  0
 18 19  1  0
 18 32  1  0
 19 23  1  0
 19 30  1  0
 20 30  1  0
 20 34  1  0
 22 35  1  0
 23 33  1  0
  1 36  1  0
  2 37  1  0
  3 38  1  0
  4 39  1  0
  5 40  1  0
  6 41  1  0
 16 42  1  0
 17 43  1  0
 18 44  1  0
 19 45  1  0
 20 46  1  0
 21 47  1  0
 21 48  1  0
 21 49  1  0
 22 50  1  0
 22 51  1  0
 22 52  1  0
 23 53  1  0
 23 54  1  0
 25 55  1  0
 26 56  1  0
 26 57  1  0
 27 58  1  0
 28 59  1  0
 28 60  1  0
 31 61  1  0
 32 62  1  0
 33 63  1  0
M  CHG  1  28   1
M  END
> <Name>
BR010670

$$$$
BR010671
  SciTegic05062102053D

 66 69  0  0  1  0            999 V2000
    2.0032   -6.5057   -0.8077 C   0  0
    3.0434  -10.4520    4.3796 C   0  0
    3.4362   -9.9213    3.1464 C   0  0
    1.8381   -5.5754   -1.8339 C   0  0
    1.1376   -4.9056    0.7821 C   0  0
    1.2463   -8.8231    4.5910 C   0  0
    1.6529   -6.1708    0.5003 C   0  0
    1.9682   -9.9143    5.0907 C   0  0
    1.6272   -8.2771    3.3537 C   0  0
    2.7029   -8.8348    2.6684 C   0  0
    1.3228   -4.3103   -1.5521 C   0  0
    0.9725   -3.9753   -0.2440 C   0  0
    1.8234   -7.1331    1.5614 C   0  0
    1.5927  -10.4912    6.3633 C   0  0
    3.1663   -1.4657   -5.0789 C   0  0  1  0  0  0
    4.2220   -0.9917   -4.0799 C   0  0  1  0  0  0
    1.9413   -2.0335   -4.3620 C   0  0  2  0  0  0
    4.5014   -2.0715   -3.0318 C   0  0  1  0  0  0
    2.3450   -3.0333   -3.2784 C   0  0  1  0  0  0
    0.6678   -9.0211    9.6030 C   0  0
    2.4765  -10.7712    9.4953 C   0  0
   -0.9485   -2.5909   -0.0227 C   0  0
    5.4607   -1.5895   -1.9479 C   0  0
    1.2470  -10.1872    8.8151 C   0  0
    1.0935   -7.2215    2.6507 N   0  0
    2.8057   -8.0834    1.5258 N   0  0
    1.6207   -9.7232    7.4766 N   0  0
    1.2237  -11.7861    6.4157 N   0  3
    3.2855   -2.4463   -2.3821 O   0  0
    2.7670   -0.3516   -5.8792 O   0  0
    5.4097   -0.6837   -4.8050 O   0  0
    1.1175   -2.6845   -5.3282 O   0  0
    5.6552   -2.6399   -1.0186 O   0  0
    1.1656   -3.4063   -2.5667 O   0  0
    0.4680   -2.7431    0.0441 O   0  0
    2.4060   -7.4876   -1.0439 H   0  0
    3.5934  -11.2994    4.7837 H   0  0
    4.2712  -10.3358    2.5932 H   0  0
    2.1130   -5.8427   -2.8505 H   0  0
    0.8610   -4.6353    1.7991 H   0  0
    0.4105   -8.4053    5.1441 H   0  0
    3.5938   -2.2047   -5.7682 H   0  0
    3.8713   -0.0671   -3.6034 H   0  0
    1.3473   -1.2163   -3.9335 H   0  0
    4.9490   -2.9571   -3.5019 H   0  0
    2.7627   -3.9456   -3.7229 H   0  0
    1.4114   -8.2273    9.7280 H   0  0
   -0.2067   -8.5935    9.0999 H   0  0
    0.3479   -9.3461   10.5991 H   0  0
    3.2517  -10.0071    9.6187 H   0  0
    2.8984  -11.5894    8.9024 H   0  0
    2.2364  -11.1601   10.4912 H   0  0
   -1.2175   -1.5622    0.2294 H   0  0
   -1.4237   -3.2846    0.6755 H   0  0
   -1.2824   -2.8139   -1.0388 H   0  0
    5.0373   -0.7269   -1.4332 H   0  0
    6.4187   -1.3192   -2.3920 H   0  0
    0.4868  -10.9679    8.7025 H   0  0
    3.4876   -8.2139    0.7900 H   0  0
    1.9113   -8.7570    7.3584 H   0  0
    1.1949  -12.3740    5.5904 H   0  0
    0.9534  -12.2050    7.2989 H   0  0
    2.4057    0.3076   -5.2681 H   0  0
    5.6816   -1.5014   -5.2497 H   0  0
    1.6573   -3.3880   -5.7198 H   0  0
    6.2681   -2.3104   -0.3394 H   0  0
  1  4  2  0
  1  7  1  0
  2  3  2  0
  2  8  1  0
  3 10  1  0
  4 11  1  0
  5  7  2  0
  5 12  1  0
  6  8  2  0
  6  9  1  0
  7 13  1  0
  8 14  1  0
  9 10  2  0
  9 25  1  0
 10 26  1  0
 11 12  2  0
 11 34  1  0
 12 35  1  0
 13 25  2  0
 13 26  1  0
 14 27  1  0
 14 28  2  0
 15 16  1  0
 15 17  1  0
 15 30  1  0
 16 18  1  0
 16 31  1  0
 17 19  1  0
 17 32  1  0
 18 23  1  0
 18 29  1  0
 19 29  1  0
 19 34  1  0
 20 24  1  0
 21 24  1  0
 22 35  1  0
 23 33  1  0
 24 27  1  0
  1 36  1  0
  2 37  1  0
  3 38  1  0
  4 39  1  0
  5 40  1  0
  6 41  1  0
 15 42  1  0
 16 43  1  0
 17 44  1  0
 18 45  1  0
 19 46  1  0
 20 47  1  0
 20 48  1  0
 20 49  1  0
 21 50  1  0
 21 51  1  0
 21 52  1  0
 22 53  1  0
 22 54  1  0
 22 55  1  0
 23 56  1  0
 23 57  1  0
 24 58  1  0
 26 59  1  0
 27 60  1  0
 28 61  1  0
 28 62  1  0
 30 63  1  0
 31 64  1  0
 32 65  1  0
 33 66  1  0
M  CHG  1  28   1
M  END
> <Name>
BR010671

$$$$
BR010672
  SciTegic05062102053D

 66 69  0  0  1  0            999 V2000
    4.4913   -3.9493   -6.0773 C   0  0
    9.6593   -8.0361   -6.4705 C   0  0
    8.9295   -6.9366   -6.9343 C   0  0
    3.4689   -3.0157   -5.9082 C   0  0
    4.7805   -4.0666   -3.6816 C   0  0
    8.3247   -8.1573   -4.4378 C   0  0
    5.1471   -4.4749   -4.9640 C   0  0
    9.3640   -8.6372   -5.2448 C   0  0
    7.5812   -7.0533   -4.8881 C   0  0
    7.8992   -6.4757   -6.1141 C   0  0
    3.1024   -2.6074   -4.6258 C   0  0
    3.7581   -3.1329   -3.5124 C   0  0
    6.2042   -5.4408   -5.1391 C   0  0
   10.1422   -9.7727   -4.7994 C   0  0
    1.2643    1.8685   -5.2922 C   0  0  1  0  0  0
    2.5826    2.4439   -4.7736 C   0  0  2  0  0  0
    1.0591    0.4361   -4.8001 C   0  0  2  0  0  0
    3.7331    1.4891   -5.1107 C   0  0  1  0  0  0
    2.2977   -0.4168   -5.0835 C   0  0  1  0  0  0
   11.6125  -10.6826   -1.5556 C   0  0
   13.0520  -10.6770   -3.6230 C   0  0
    2.3927   -3.4988   -1.5999 C   0  0
    5.0751    1.9586   -4.5618 C   0  0
   11.6364  -10.7796   -3.0741 C   0  0
    6.5258   -6.3972   -4.2972 N   0  0
    7.0026   -5.4469   -6.2489 N   0  0
   10.8296   -9.6938   -3.6370 N   0  0
   10.1694  -10.8886   -5.5541 N   0  3
    3.4722    0.1953   -4.5524 O   0  0
    0.1860    2.6955   -4.8634 O   0  0
    2.4819    2.6073   -3.3572 O   0  0
   -0.0636   -0.1179   -5.4853 O   0  0
    6.1093    1.3032   -5.2739 O   0  0
    2.0984   -1.6910   -4.4725 O   0  0
    3.4093   -2.7425   -2.2547 O   0  0
    4.7651   -4.2573   -7.0835 H   0  0
   10.4709   -8.4219   -7.0839 H   0  0
    9.1576   -6.4673   -7.8845 H   0  0
    2.9623   -2.6102   -6.7796 H   0  0
    5.2858   -4.4712   -2.8070 H   0  0
    8.0953   -8.6247   -3.4849 H   0  0
    1.2624    1.8875   -6.3894 H   0  0
    2.7481    3.4384   -5.2036 H   0  0
    0.8142    0.4323   -3.7309 H   0  0
    3.8246    1.3873   -6.1998 H   0  0
    2.4176   -0.5845   -6.1613 H   0  0
   12.0534   -9.7389   -1.2182 H   0  0
   10.5895  -10.7395   -1.1672 H   0  0
   12.1816  -11.5031   -1.1049 H   0  0
   13.5181   -9.7327   -3.3208 H   0  0
   13.0500  -10.7192   -4.7171 H   0  0
   13.6854  -11.4902   -3.2513 H   0  0
    2.2109   -3.0825   -0.6061 H   0  0
    2.7092   -4.5416   -1.5175 H   0  0
    1.4741   -3.4443   -2.1890 H   0  0
    5.1537    1.7088   -3.5031 H   0  0
    5.1760    3.0365   -4.6926 H   0  0
   11.1913  -11.7299   -3.3884 H   0  0
    6.9452   -4.8097   -7.0326 H   0  0
   10.7621   -8.8196   -3.1241 H   0  0
    9.6580  -10.9644   -6.4260 H   0  0
   10.7065  -11.6950   -5.2545 H   0  0
    0.3492    3.5767   -5.2340 H   0  0
    3.3302    2.9718   -3.0645 H   0  0
    0.1528   -0.0947   -6.4297 H   0  0
    6.9524    1.6184   -4.9063 H   0  0
  1  4  2  0
  1  7  1  0
  2  3  2  0
  2  8  1  0
  3 10  1  0
  4 11  1  0
  5  7  2  0
  5 12  1  0
  6  8  2  0
  6  9  1  0
  7 13  1  0
  8 14  1  0
  9 10  2  0
  9 25  1  0
 10 26  1  0
 11 12  2  0
 11 34  1  0
 12 35  1  0
 13 25  2  0
 13 26  1  0
 14 27  1  0
 14 28  2  0
 15 16  1  0
 15 17  1  0
 15 30  1  0
 16 18  1  0
 16 31  1  0
 17 19  1  0
 17 32  1  0
 18 23  1  0
 18 29  1  0
 19 29  1  0
 19 34  1  0
 20 24  1  0
 21 24  1  0
 22 35  1  0
 23 33  1  0
 24 27  1  0
  1 36  1  0
  2 37  1  0
  3 38  1  0
  4 39  1  0
  5 40  1  0
  6 41  1  0
 15 42  1  0
 16 43  1  0
 17 44  1  0
 18 45  1  0
 19 46  1  0
 20 47  1  0
 20 48  1  0
 20 49  1  0
 21 50  1  0
 21 51  1  0
 21 52  1  0
 22 53  1  0
 22 54  1  0
 22 55  1  0
 23 56  1  0
 23 57  1  0
 24 58  1  0
 26 59  1  0
 27 60  1  0
 28 61  1  0
 28 62  1  0
 30 63  1  0
 31 64  1  0
 32 65  1  0
 33 66  1  0
M  CHG  1  28   1
M  END
> <Name>
BR010672

$$$$
BR010673
  SciTegic05062102053D

 87 91  0  0  1  0            999 V2000
    7.0193   -6.5104   -3.3386 C   0  0
    8.1036  -11.8103    0.4429 C   0  0
    7.4491  -10.6005    0.1887 C   0  0
    6.7030   -5.4628   -4.2035 C   0  0
    7.1880   -8.0143   -5.2219 C   0  0
    9.0178  -11.8740   -1.8128 C   0  0
    7.2619   -7.7861   -3.8478 C   0  0
    8.8746  -12.4374   -0.5386 C   0  0
    8.3670  -10.6589   -2.0856 C   0  0
    7.6058  -10.0578   -1.0871 C   0  0
    6.6291   -5.6909   -5.5776 C   0  0
    6.8717   -6.9667   -6.0868 C   0  0
    7.5894   -8.8694   -2.9531 C   0  0
    9.5360  -13.6884   -0.2371 C   0  0
   -1.9709   -2.0738   -8.8308 C   0  0  1  0  0  0
    3.5312   -2.2631   -7.1846 C   0  0  1  0  0  0
   -1.2790   -1.5312  -10.0817 C   0  0  2  0  0  0
    2.4333   -3.3269   -7.1944 C   0  0  1  0  0  0
   -1.0092   -2.1100   -7.6434 C   0  0  2  0  0  0
    4.9198   -2.9005   -7.2370 C   0  0  2  0  0  0
    0.0138   -2.3130  -10.3393 C   0  0  1  0  0  0
    2.7135   -4.4063   -6.1462 C   0  0  1  0  0  0
    5.0556   -4.0230   -6.2082 C   0  0  1  0  0  0
    0.2947   -2.8152   -8.0236 C   0  0  1  0  0  0
    9.9085  -16.8356   -2.0994 C   0  0
    9.0428  -16.8778    0.2659 C   0  0
    8.0044   -7.0349   -8.1768 C   0  0
    0.8012   -1.7830  -11.5316 C   0  0
    1.7034   -5.5479   -6.2087 C   0  0
    9.8530  -16.1058   -0.7652 C   0  0
    8.3451   -9.9063   -3.2374 N   0  0
    7.1204   -8.9152   -1.6697 N   0  0
    9.2387  -14.7904   -0.9631 N   0  0
   10.4358  -13.7323    0.7650 N   0  3
    0.8692   -2.2320   -9.1923 O   0  0
    4.0058   -4.9747   -6.3654 O   0  0
   -3.1004   -1.2609   -8.5247 O   0  0
    3.3577   -1.4221   -8.3263 O   0  0
   -0.9810   -0.1488   -9.8735 O   0  0
   -1.6380   -2.8209   -6.5774 O   0  0
    5.8887   -1.8881   -6.9685 O   0  0
    1.6940   -2.7920  -11.9687 O   0  0
    2.0403   -6.5025   -5.2188 O   0  0
    6.3177   -4.6557   -6.4159 O   0  0
    6.8029   -7.2024   -7.4268 O   0  0
    1.1966   -2.6850   -6.9253 O   0  0
    7.0730   -6.3161   -2.2701 H   0  0
    8.0029  -12.2631    1.4271 H   0  0
    6.8489  -10.1125    0.9482 H   0  0
    6.5151   -4.4715   -3.8003 H   0  0
    7.3761   -9.0058   -5.6285 H   0  0
    9.6171  -12.3617   -2.5756 H   0  0
   -2.3510   -3.0835   -9.0310 H   0  0
    3.4309   -1.6154   -6.3046 H   0  0
   -1.9605   -1.5904  -10.9380 H   0  0
    2.3714   -3.7652   -8.1988 H   0  0
   -0.8158   -1.0937   -7.2790 H   0  0
    5.1205   -3.2755   -8.2486 H   0  0
   -0.2213   -3.3690  -10.5255 H   0  0
    2.6716   -3.9805   -5.1349 H   0  0
    5.0537   -3.6210   -5.1871 H   0  0
    0.1258   -3.8875   -8.1846 H   0  0
    8.9014  -17.0015   -2.4955 H   0  0
   10.4784  -16.2670   -2.8429 H   0  0
   10.3943  -17.8113   -1.9887 H   0  0
    8.0201  -17.0447   -0.0897 H   0  0
    8.9876  -16.3269    1.2105 H   0  0
    9.4848  -17.8597    0.4689 H   0  0
    7.8110   -7.2537   -9.2298 H   0  0
    8.7736   -7.7075   -7.7891 H   0  0
    8.3438   -6.0011   -8.0782 H   0  0
    1.3716   -0.9003  -11.2401 H   0  0
    0.1212   -1.5278  -12.3451 H   0  0
    1.7361   -6.0202   -7.1906 H   0  0
    0.7000   -5.1681   -6.0164 H   0  0
   10.8700  -15.9510   -0.3887 H   0  0
    6.5233   -8.2306   -1.2245 H   0  0
    8.5492  -14.6799   -1.7008 H   0  0
   10.6714  -12.9151    1.3164 H   0  0
   10.9115  -14.6001    0.9867 H   0  0
   -3.6897   -1.3055   -9.2937 H   0  0
    3.4290   -1.9975   -9.1023 H   0  0
   -0.5457    0.1603  -10.6816 H   0  0
   -1.8217   -3.7115   -6.9126 H   0  0
    5.6891   -1.5446   -6.0844 H   0  0
    2.1830   -2.4306  -12.7274 H   0  0
    1.3847   -7.2184   -5.2776 H   0  0
  1  4  2  0
  1  7  1  0
  2  3  2  0
  2  8  1  0
  3 10  1  0
  4 11  1  0
  5  7  2  0
  5 12  1  0
  6  8  2  0
  6  9  1  0
  7 13  1  0
  8 14  1  0
  9 10  2  0
  9 31  1  0
 10 32  1  0
 11 12  2  0
 11 44  1  0
 12 45  1  0
 13 31  2  0
 13 32  1  0
 14 33  1  0
 14 34  2  0
 15 17  1  0
 15 19  1  0
 15 37  1  0
 16 18  1  0
 16 20  1  0
 16 38  1  0
 17 21  1  0
 17 39  1  0
 18 22  1  0
 18 46  1  0
 19 24  1  0
 19 40  1  0
 20 23  1  0
 20 41  1  0
 21 28  1  0
 21 35  1  0
 22 29  1  0
 22 36  1  0
 23 36  1  0
 23 44  1  0
 24 35  1  0
 24 46  1  0
 25 30  1  0
 26 30  1  0
 27 45  1  0
 28 42  1  0
 29 43  1  0
 30 33  1  0
  1 47  1  0
  2 48  1  0
  3 49  1  0
  4 50  1  0
  5 51  1  0
  6 52  1  0
 15 53  1  0
 16 54  1  0
 17 55  1  0
 18 56  1  0
 19 57  1  0
 20 58  1  0
 21 59  1  0
 22 60  1  0
 23 61  1  0
 24 62  1  0
 25 63  1  0
 25 64  1  0
 25 65  1  0
 26 66  1  0
 26 67  1  0
 26 68  1  0
 27 69  1  0
 27 70  1  0
 27 71  1  0
 28 72  1  0
 28 73  1  0
 29 74  1  0
 29 75  1  0
 30 76  1  0
 32 77  1  0
 33 78  1  0
 34 79  1  0
 34 80  1  0
 37 81  1  0
 38 82  1  0
 39 83  1  0
 40 84  1  0
 41 85  1  0
 42 86  1  0
 43 87  1  0
M  CHG  1  34   1
M  END
> <Name>
BR010673

$$$$
BR010674
  SciTegic05062102053D

 72 75  0  0  1  0            999 V2000
    5.8070   -0.2788   -2.8714 C   0  0
   10.6412   -4.3925   -1.0621 C   0  0
    9.5864   -4.0404   -1.9107 C   0  0
    4.7082    0.5275   -3.1679 C   0  0
    5.3775    0.0037   -0.5107 C   0  0
   10.0439   -2.6456    0.5253 C   0  0
    6.1417   -0.5408   -1.5428 C   0  0
   10.8676   -3.7089    0.1348 C   0  0
    8.9796   -2.2783   -0.3153 C   0  0
    8.7791   -2.9785   -1.5016 C   0  0
    3.9440    1.0720   -2.1358 C   0  0
    4.2786    0.8101   -0.8072 C   0  0
    7.2780   -1.3751   -1.2364 C   0  0
   11.9695   -4.1029    0.9857 C   0  0
    0.0390    2.6492   -0.5069 C   0  0
    0.5043    1.9256   -2.8399 C   0  0  2  0  0  0
   -0.6292    1.4516   -3.7546 C   0  0  2  0  0  0
   -0.2255    1.5156   -5.2293 C   0  0  1  0  0  0
    1.1315    0.8416   -5.4476 C   0  0  1  0  0  0
    1.8329    1.2598   -3.2146 C   0  0  1  0  0  0
   -0.3040    2.1429    0.8548 C   0  0
   14.5129   -2.1963    2.8318 C   0  0
   15.2219   -4.0513    1.2818 C   0  0
    3.9378    2.6118    0.7072 C   0  0
    1.6243    0.9867   -6.8839 C   0  0
   14.0960   -3.4822    2.1327 C   0  0
    8.0375   -1.2862   -0.1676 N   0  0
    7.6844   -2.3794   -2.0702 N   0  0
   12.9427   -3.2080    1.2717 N   0  0
    0.1759    1.6558   -1.4553 N   0  0
   12.0064   -5.3574    1.4760 N   0  3
    0.1695    3.8541   -0.6884 O   0  0
    2.1110    1.4463   -4.6013 O   0  0
   -1.7635    2.2962   -3.5494 O   0  0
   -1.2356    0.8610   -5.9922 O   0  0
    2.8832    0.3482   -6.9953 O   0  0
    2.8687    1.8615   -2.4389 O   0  0
    3.5401    1.3357    0.2098 O   0  0
    6.3925   -0.6958   -3.6873 H   0  0
   11.2920   -5.2156   -1.3498 H   0  0
    9.4094   -4.5683   -2.8408 H   0  0
    4.4530    0.7276   -4.2049 H   0  0
    5.6304   -0.1953    0.5286 H   0  0
   10.2202   -2.1144    1.4557 H   0  0
    0.6011    3.0167   -2.9084 H   0  0
   -0.9391    0.4325   -3.4891 H   0  0
   -0.1954    2.5664   -5.5448 H   0  0
    1.0698   -0.2315   -5.2233 H   0  0
    1.8172    0.1873   -2.9812 H   0  0
    0.5905    1.9252    1.4602 H   0  0
   -0.8820    2.8745    1.4421 H   0  0
   -0.9012    1.2173    0.8769 H   0  0
   14.8212   -1.4390    2.1038 H   0  0
   13.6929   -1.7818    3.4290 H   0  0
   15.3543   -2.3777    3.5095 H   0  0
   15.5429   -3.3254    0.5267 H   0  0
   14.8978   -4.9593    0.7629 H   0  0
   16.0976   -4.3008    1.8914 H   0  0
    3.2664    2.9146    1.5144 H   0  0
    3.9058    3.3455   -0.1023 H   0  0
    4.9579    2.5412    1.0920 H   0  0
    1.7320    2.0419   -7.1356 H   0  0
    0.9194    0.5154   -7.5689 H   0  0
   13.7921   -4.2241    2.8792 H   0  0
    7.2566   -2.6391   -2.9494 H   0  0
   12.8472   -2.2825    0.8640 H   0  0
    0.0402    0.6922   -1.1694 H   0  0
   11.2838   -6.0388    1.2733 H   0  0
   12.7694   -5.6486    2.0774 H   0  0
   -1.4788    3.1942   -3.7751 H   0  0
   -1.2740   -0.0538   -5.6726 H   0  0
    3.1761    0.4536   -7.9166 H   0  0
  1  4  2  0
  1  7  1  0
  2  3  2  0
  2  8  1  0
  3 10  1  0
  4 11  1  0
  5  7  2  0
  5 12  1  0
  6  8  2  0
  6  9  1  0
  7 13  1  0
  8 14  1  0
  9 10  2  0
  9 27  1  0
 10 28  1  0
 11 12  2  0
 11 37  1  0
 12 38  1  0
 13 27  2  0
 13 28  1  0
 14 29  1  0
 14 31  2  0
 15 21  1  0
 15 30  1  0
 15 32  2  0
 16 17  1  0
 16 20  1  0
 16 30  1  0
 17 18  1  0
 17 34  1  0
 18 19  1  0
 18 35  1  0
 19 25  1  0
 19 33  1  0
 20 33  1  0
 20 37  1  0
 22 26  1  0
 23 26  1  0
 24 38  1  0
 25 36  1  0
 26 29  1  0
  1 39  1  0
  2 40  1  0
  3 41  1  0
  4 42  1  0
  5 43  1  0
  6 44  1  0
 16 45  1  0
 17 46  1  0
 18 47  1  0
 19 48  1  0
 20 49  1  0
 21 50  1  0
 21 51  1  0
 21 52  1  0
 22 53  1  0
 22 54  1  0
 22 55  1  0
 23 56  1  0
 23 57  1  0
 23 58  1  0
 24 59  1  0
 24 60  1  0
 24 61  1  0
 25 62  1  0
 25 63  1  0
 26 64  1  0
 28 65  1  0
 29 66  1  0
 30 67  1  0
 31 68  1  0
 31 69  1  0
 34 70  1  0
 35 71  1  0
 36 72  1  0
M  CHG  1  31   1
M  END
> <Name>
BR010674

$$$$
BR010675
  SciTegic05062102053D

 73 76  0  0  1  0            999 V2000
    1.9314   -3.3465   -6.1461 C   0  0
    4.4888   -2.3500  -10.8192 C   0  0
    5.6558   -2.6072  -11.5463 C   0  0
    1.2117   -3.4030   -4.9526 C   0  0
    3.9924   -3.1848   -4.8957 C   0  0
    6.7356   -3.5992   -9.6026 C   0  0
    3.3218   -3.2375   -6.1176 C   0  0
    5.5714   -3.3481   -8.8570 C   0  0
    4.4868   -2.7354   -9.4782 C   0  0
    6.7604   -3.2207  -10.9508 C   0  0
    1.8823   -3.3503   -3.7306 C   0  0
    3.2726   -3.2412   -3.7022 C   0  0
    4.0660   -3.1795   -7.3521 C   0  0
   -2.9489   -2.3852    0.9259 C   0  0
   -1.9601    1.2972    0.6303 C   0  0
   -0.5781   -4.9802   -0.7549 C   0  0
    2.0851    2.3919   -3.8973 C   0  0
   -1.4240   -1.4908   -0.6420 C   0  0  1  0  0  0
   -0.7391   -0.1332   -0.8004 C   0  0  1  0  0  0
   -0.4804   -2.6337   -1.0165 C   0  0  2  0  0  0
   -0.0643   -0.0218   -2.1696 C   0  0  1  0  0  0
    0.2035   -2.3731   -2.3586 C   0  0  1  0  0  0
   -3.2456   -2.4561    2.3933 C   0  0
   -3.0176    2.3592    0.6347 C   0  0
   -1.4975   -6.1567   -0.8841 C   0  0
    2.6512    2.2726   -5.2799 C   0  0
    4.3558   -4.4309   -1.9508 C   0  0
    0.7314    1.2714   -2.3175 C   0  0
    5.2915   -3.6166   -7.5368 N   0  0
    3.5385   -2.6401   -8.4923 N   0  0
    7.9284   -3.4652  -11.7223 N   0  3
    7.9418   -3.1225  -12.9288 O   0  5
   -3.6287   -2.9235    0.0626 O   0  0
   -1.4018    0.8821    1.6368 O   0  0
    0.5888   -5.0588   -0.3953 O   0  0
    2.2827    3.3451   -3.1560 O   0  0
    8.9130   -4.0164  -11.1746 O   0  0
    0.8515   -1.1032   -2.3511 O   0  0
    1.1656   -3.4063   -2.5667 O   0  0
    3.9393   -3.1891   -2.5152 O   0  0
   -1.8241   -1.6404    0.7212 O   0  0
   -1.7290    0.8812   -0.6501 O   0  0
   -1.2427   -3.8373   -1.0959 O   0  0
    1.3285    1.2888   -3.6013 O   0  0
    1.3939   -3.3888   -7.0903 H   0  0
    3.6303   -1.8741  -11.2794 H   0  0
    5.6888   -2.3183  -12.5952 H   0  0
    0.1289   -3.4878   -4.9818 H   0  0
    5.0766   -3.1003   -4.8633 H   0  0
    7.5924   -4.0759   -9.1356 H   0  0
   -2.3429   -1.5299   -1.2405 H   0  0
   -0.0062   -0.0080    0.0071 H   0  0
    0.2643   -2.7781   -0.2236 H   0  0
   -0.8146   -0.0439   -2.9711 H   0  0
   -0.5186   -2.4258   -3.1832 H   0  0
   -2.7433   -3.3218    2.8318 H   0  0
   -4.3255   -2.5163    2.5509 H   0  0
   -2.8728   -1.5517    2.8827 H   0  0
   -2.5548    3.3438    0.5316 H   0  0
   -3.5980    2.3008    1.5589 H   0  0
   -3.6935    2.2014   -0.2108 H   0  0
   -2.0182   -6.3261    0.0616 H   0  0
   -0.9275   -7.0428   -1.1746 H   0  0
   -2.2413   -5.9522   -1.6598 H   0  0
    3.6230    1.7743   -5.2410 H   0  0
    2.7441    3.2643   -5.7296 H   0  0
    1.9763    1.6727   -5.8974 H   0  0
    4.8748   -4.2472   -1.0069 H   0  0
    5.0199   -4.9454   -2.6499 H   0  0
    3.4750   -5.0502   -1.7652 H   0  0
    1.5109    1.3176   -1.5570 H   0  0
    0.0680    2.1303   -2.2170 H   0  0
    2.6144   -2.2415   -8.5952 H   0  0
  1  4  2  0
  1  7  1  0
  2  3  2  0
  2  9  1  0
  3 10  1  0
  4 11  1  0
  5  7  2  0
  5 12  1  0
  6  8  1  0
  6 10  2  0
  7 13  1  0
  8  9  2  0
  8 29  1  0
  9 30  1  0
 10 31  1  0
 11 12  2  0
 11 39  1  0
 12 40  1  0
 13 29  2  0
 13 30  1  0
 14 23  1  0
 14 33  2  0
 14 41  1  0
 15 24  1  0
 15 34  2  0
 15 42  1  0
 16 25  1  0
 16 35  2  0
 16 43  1  0
 17 26  1  0
 17 36  2  0
 17 44  1  0
 18 19  1  0
 18 20  1  0
 18 41  1  0
 19 21  1  0
 19 42  1  0
 20 22  1  0
 20 43  1  0
 21 28  1  0
 21 38  1  0
 22 38  1  0
 22 39  1  0
 27 40  1  0
 28 44  1  0
 31 32  1  0
 31 37  2  0
  1 45  1  0
  2 46  1  0
  3 47  1  0
  4 48  1  0
  5 49  1  0
  6 50  1  0
 18 51  1  0
 19 52  1  0
 20 53  1  0
 21 54  1  0
 22 55  1  0
 23 56  1  0
 23 57  1  0
 23 58  1  0
 24 59  1  0
 24 60  1  0
 24 61  1  0
 25 62  1  0
 25 63  1  0
 25 64  1  0
 26 65  1  0
 26 66  1  0
 26 67  1  0
 27 68  1  0
 27 69  1  0
 27 70  1  0
 28 71  1  0
 28 72  1  0
 30 73  1  0
M  CHG  2  31   1  32  -1
M  END
> <Name>
BR010675

$$$$
BR010676
  SciTegic05062102053D

 73 76  0  0  1  0            999 V2000
    4.7840   -4.1604   -4.1709 C   0  0
    9.6925   -6.4436   -4.4282 C   0  0
   10.6974   -6.8675   -5.3040 C   0  0
    3.5944   -3.4710   -3.9360 C   0  0
    5.3207   -2.6256   -5.9578 C   0  0
    9.6258   -5.7573   -7.1874 C   0  0
    5.6472   -3.7377   -5.1818 C   0  0
    8.6077   -5.3230   -6.3218 C   0  0
    8.6659   -5.6737   -4.9760 C   0  0
   10.6666   -6.5315   -6.6594 C   0  0
    3.2680   -2.3589   -4.7121 C   0  0
    4.1311   -1.9361   -5.7230 C   0  0
    6.8777   -4.4506   -5.4243 C   0  0
   -0.1514    2.7277   -1.1123 C   0  0
   -2.1676   -0.5982   -0.6712 C   0  0
    1.0128    1.9772   -4.7638 C   0  0
   -0.0513   -3.2307    2.0855 C   0  0
    0.7233    0.6893   -1.9268 C   0  0  1  0  0  0
    0.1626   -0.3970   -1.0083 C   0  0  2  0  0  0
    1.0679    0.1207   -3.3030 C   0  0  2  0  0  0
    1.1199   -1.5934   -0.9760 C   0  0  1  0  0  0
    1.9375   -1.1315   -3.1696 C   0  0  1  0  0  0
   -1.2083    3.7587   -1.3695 C   0  0
   -3.4304   -1.0693   -1.3265 C   0  0
    1.8918    2.9615   -5.4741 C   0  0
   -0.1861   -2.6172    3.4462 C   0  0
    3.0771   -1.0891   -7.6794 C   0  0
    0.5950   -2.7518   -0.1363 C   0  0
    7.4902   -4.5632   -6.5815 N   0  0
    7.5470   -5.1024   -4.4261 N   0  0
   11.7057   -6.9813   -7.5181 N   0  3
   12.6335   -7.6746   -7.0368 O   0  5
    0.6512    2.7844   -0.1904 O   0  0
   -2.1187   -0.1064    0.4481 O   0  0
   -0.2082    1.9681   -4.8419 O   0  0
   -0.3267   -4.3949    1.8285 O   0  0
   11.6652   -6.6725   -8.7331 O   0  0
    1.3267   -2.0883   -2.3049 O   0  0
    2.0984   -1.6910   -4.4725 O   0  0
    3.8238   -0.8514   -6.4877 O   0  0
   -0.2303    1.7405   -2.0532 O   0  0
   -1.1121   -0.8043   -1.5106 O   0  0
    1.7818    1.1166   -4.0347 O   0  0
    0.4192   -2.3021    1.1952 O   0  0
    5.0240   -5.0253   -3.5571 H   0  0
    9.7145   -6.7031   -3.3758 H   0  0
   11.5124   -7.4699   -4.9072 H   0  0
    2.9265   -3.8056   -3.1471 H   0  0
    5.9878   -2.2880   -6.7483 H   0  0
    9.5978   -5.4943   -8.2407 H   0  0
    1.6205    1.1273   -1.4713 H   0  0
   -0.0004    0.0130   -0.0050 H   0  0
    0.1516   -0.0940   -3.8664 H   0  0
    2.0891   -1.2829   -0.5645 H   0  0
    2.9371   -0.8744   -2.7968 H   0  0
   -0.8169    4.5334   -2.0335 H   0  0
   -1.5403    4.1936   -0.4233 H   0  0
   -2.0667    3.2849   -1.8544 H   0  0
   -3.8817   -0.2512   -1.8932 H   0  0
   -4.1244   -1.4424   -0.5691 H   0  0
   -3.1981   -1.8852   -2.0171 H   0  0
    2.0530    3.8384   -4.8422 H   0  0
    1.4342    3.2496   -6.4239 H   0  0
    2.8609    2.4984   -5.6816 H   0  0
    0.7455   -2.7423    4.0034 H   0  0
   -1.0200   -3.0794    3.9806 H   0  0
   -0.3897   -1.5473    3.3430 H   0  0
    2.9002   -0.1417   -8.1944 H   0  0
    2.1248   -1.5615   -7.4255 H   0  0
    3.6493   -1.7540   -8.3307 H   0  0
    1.3108   -3.5747   -0.1460 H   0  0
   -0.3628   -3.0945   -0.5293 H   0  0
    7.2707   -5.1558   -3.4544 H   0  0
  1  4  2  0
  1  7  1  0
  2  3  2  0
  2  9  1  0
  3 10  1  0
  4 11  1  0
  5  7  2  0
  5 12  1  0
  6  8  1  0
  6 10  2  0
  7 13  1  0
  8  9  2  0
  8 29  1  0
  9 30  1  0
 10 31  1  0
 11 12  2  0
 11 39  1  0
 12 40  1  0
 13 29  2  0
 13 30  1  0
 14 23  1  0
 14 33  2  0
 14 41  1  0
 15 24  1  0
 15 34  2  0
 15 42  1  0
 16 25  1  0
 16 35  2  0
 16 43  1  0
 17 26  1  0
 17 36  2  0
 17 44  1  0
 18 19  1  0
 18 20  1  0
 18 41  1  0
 19 21  1  0
 19 42  1  0
 20 22  1  0
 20 43  1  0
 21 28  1  0
 21 38  1  0
 22 38  1  0
 22 39  1  0
 27 40  1  0
 28 44  1  0
 31 32  1  0
 31 37  2  0
  1 45  1  0
  2 46  1  0
  3 47  1  0
  4 48  1  0
  5 49  1  0
  6 50  1  0
 18 51  1  0
 19 52  1  0
 20 53  1  0
 21 54  1  0
 22 55  1  0
 23 56  1  0
 23 57  1  0
 23 58  1  0
 24 59  1  0
 24 60  1  0
 24 61  1  0
 25 62  1  0
 25 63  1  0
 25 64  1  0
 26 65  1  0
 26 66  1  0
 26 67  1  0
 27 68  1  0
 27 69  1  0
 27 70  1  0
 28 71  1  0
 28 72  1  0
 30 73  1  0
M  CHG  2  31   1  32  -1
M  END
> <Name>
BR010676

$$$$
BR010677
  SciTegic05062102053D

109113  0  0  1  0            999 V2000
    7.0776   -4.2178   -9.9701 C   0  0
    9.2162   -2.2495  -14.5443 C   0  0
   10.4127   -2.0663  -15.2453 C   0  0
    6.4008   -4.5575   -8.7987 C   0  0
    8.9354   -3.4003   -8.6597 C   0  0
   11.7343   -2.6913  -13.2983 C   0  0
    8.3450   -3.6393   -9.9006 C   0  0
   10.5422   -2.8800  -12.5789 C   0  0
    9.3238   -2.6564  -13.2141 C   0  0
   11.6505   -2.2828  -14.6353 C   0  0
    6.9913   -4.3185   -7.5578 C   0  0
    8.2587   -3.7399   -7.4883 C   0  0
    9.0449   -3.2884  -11.1123 C   0  0
   -1.0671    2.1466   -1.1363 C   0  0
    2.0436   -5.2254   -3.0131 C   0  0
   -0.7572   -1.3554    0.5847 C   0  0
   -0.0523    0.1030   -5.4743 C   0  0
    5.1907   -6.7917   -4.6932 C   0  0
    4.5955   -3.0774    0.8344 C   0  0
    5.5817    1.2335   -4.9684 C   0  0
    0.4788    0.5545   -1.9482 C   0  0  1  0  0  0
    3.1946   -3.8104   -4.5154 C   0  0  1  0  0  0
    0.8838   -0.2837   -0.7353 C   0  0  2  0  0  0
    3.3736   -2.2958   -4.6205 C   0  0  1  0  0  0
    0.6540   -0.2355   -3.2448 C   0  0  2  0  0  0
    4.4801   -4.5469   -4.8926 C   0  0  2  0  0  0
    2.2922   -0.8509   -0.9441 C   0  0  1  0  0  0
    3.9923   -1.9141   -5.9673 C   0  0  1  0  0  0
    5.0556   -4.0230   -6.2082 C   0  0  1  0  0  0
    2.0523   -0.8532   -3.3182 C   0  0  1  0  0  0
   -2.5316    2.4562   -1.0628 C   0  0
    1.7643   -5.4425   -1.5568 C   0  0
   -1.6978   -2.5220    0.6020 C   0  0
   -0.1850    1.1520   -6.5363 C   0  0
    4.7343   -8.2073   -4.8774 C   0  0
    5.9643   -3.5022    0.3961 C   0  0
    6.5346    1.4452   -3.8312 C   0  0
    9.6546   -4.5430   -5.7384 C   0  0
    2.7412   -1.7604    0.1933 C   0  0
    4.2972   -0.4222   -6.0605 C   0  0
   10.3490   -3.2720  -11.2741 N   0  0
    8.3838   -2.9253  -12.2525 N   0  0
   12.8445   -2.0858  -15.3802 N   0  3
   12.7599   -1.7194  -16.5768 O   0  5
   -0.1918    2.8574   -0.6611 O   0  0
    1.6054   -5.9353   -3.9082 O   0  0
   -0.6545   -0.5445    1.4953 O   0  0
   -0.3744   -1.0679   -5.6237 O   0  0
    6.3071   -6.4769   -4.3036 O   0  0
    4.0670   -3.4388    1.8771 O   0  0
    5.2089    2.1206   -5.7241 O   0  0
   13.9490   -2.2835  -14.8198 O   0  0
    2.3325   -1.6237   -2.1504 O   0  0
    5.2271   -2.6088   -6.1508 O   0  0
    6.3177   -4.6557   -6.4159 O   0  0
    8.8462   -3.5016   -6.2825 O   0  0
   -0.8765    0.9704   -1.8046 O   0  0
    2.8471   -4.1334   -3.1679 O   0  0
   -0.0555   -1.3505   -0.5852 O   0  0
    0.4733    0.6579   -4.3432 O   0  0
    4.1797   -5.9357   -5.0233 O   0  0
    4.0422   -2.2393   -0.0972 O   0  0
    5.2022   -0.0817   -5.0261 O   0  0
    2.0984   -1.6910   -4.4725 O   0  0
    6.6037   -4.4107  -10.9296 H   0  0
    8.2545   -2.0821  -15.0158 H   0  0
   10.3624   -1.7489  -16.2852 H   0  0
    5.4139   -5.0078   -8.8599 H   0  0
    9.9238   -2.9499   -8.5954 H   0  0
   12.6946   -2.8602  -12.8201 H   0  0
    1.0888    1.4661   -1.9840 H   0  0
    2.3557   -4.1426   -5.1397 H   0  0
    0.8284    0.3270    0.1731 H   0  0
    4.0047   -1.9535   -3.7902 H   0  0
   -0.1221   -1.0060   -3.3290 H   0  0
    5.2153   -4.4532   -4.0833 H   0  0
    3.0146   -0.0291   -1.0319 H   0  0
    3.3092   -2.1657   -6.7894 H   0  0
    4.4098   -4.2929   -7.0535 H   0  0
    2.8161   -0.0757   -3.4459 H   0  0
   -2.8299    3.0471   -1.9322 H   0  0
   -2.7510    2.9944   -0.1372 H   0  0
   -3.1003    1.5217   -1.0647 H   0  0
    2.5261   -6.0973   -1.1266 H   0  0
    0.7684   -5.8749   -1.4306 H   0  0
    1.7949   -4.4819   -1.0345 H   0  0
   -2.6588   -2.2301    0.1714 H   0  0
   -1.8270   -2.8792    1.6268 H   0  0
   -1.2789   -3.3344    0.0010 H   0  0
   -1.1653    1.6297   -6.4654 H   0  0
   -0.0462    0.7013   -7.5223 H   0  0
    0.5857    1.9146   -6.3911 H   0  0
    4.2875   -8.5764   -3.9509 H   0  0
    5.5792   -8.8338   -5.1743 H   0  0
    3.9791   -8.2448   -5.6678 H   0  0
    5.8961   -4.4162   -0.1989 H   0  0
    6.6019   -3.6578    1.2700 H   0  0
    6.4074   -2.7160   -0.2220 H   0  0
    5.9796    1.6980   -2.9244 H   0  0
    7.2428    2.2385   -4.0835 H   0  0
    7.0951    0.5232   -3.6513 H   0  0
   10.0624   -4.2238   -4.7762 H   0  0
   10.4670   -4.7748   -6.4317 H   0  0
    9.0375   -5.4328   -5.5928 H   0  0
    2.0595   -2.6064    0.2865 H   0  0
    2.7644   -1.2032    1.1305 H   0  0
    3.3794    0.1533   -5.9401 H   0  0
    4.7504   -0.1944   -7.0253 H   0  0
    7.3809   -2.8648  -12.3708 H   0  0
  1  4  2  0
  1  7  1  0
  2  3  2  0
  2  9  1  0
  3 10  1  0
  4 11  1  0
  5  7  2  0
  5 12  1  0
  6  8  1  0
  6 10  2  0
  7 13  1  0
  8  9  2  0
  8 41  1  0
  9 42  1  0
 10 43  1  0
 11 12  2  0
 11 55  1  0
 12 56  1  0
 13 41  2  0
 13 42  1  0
 14 31  1  0
 14 45  2  0
 14 57  1  0
 15 32  1  0
 15 46  2  0
 15 58  1  0
 16 33  1  0
 16 47  2  0
 16 59  1  0
 17 34  1  0
 17 48  2  0
 17 60  1  0
 18 35  1  0
 18 49  2  0
 18 61  1  0
 19 36  1  0
 19 50  2  0
 19 62  1  0
 20 37  1  0
 20 51  2  0
 20 63  1  0
 21 23  1  0
 21 25  1  0
 21 57  1  0
 22 24  1  0
 22 26  1  0
 22 58  1  0
 23 27  1  0
 23 59  1  0
 24 28  1  0
 24 64  1  0
 25 30  1  0
 25 60  1  0
 26 29  1  0
 26 61  1  0
 27 39  1  0
 27 53  1  0
 28 40  1  0
 28 54  1  0
 29 54  1  0
 29 55  1  0
 30 53  1  0
 30 64  1  0
 38 56  1  0
 39 62  1  0
 40 63  1  0
 43 44  1  0
 43 52  2  0
  1 65  1  0
  2 66  1  0
  3 67  1  0
  4 68  1  0
  5 69  1  0
  6 70  1  0
 21 71  1  0
 22 72  1  0
 23 73  1  0
 24 74  1  0
 25 75  1  0
 26 76  1  0
 27 77  1  0
 28 78  1  0
 29 79  1  0
 30 80  1  0
 31 81  1  0
 31 82  1  0
 31 83  1  0
 32 84  1  0
 32 85  1  0
 32 86  1  0
 33 87  1  0
 33 88  1  0
 33 89  1  0
 34 90  1  0
 34 91  1  0
 34 92  1  0
 35 93  1  0
 35 94  1  0
 35 95  1  0
 36 96  1  0
 36 97  1  0
 36 98  1  0
 37 99  1  0
 37100  1  0
 37101  1  0
 38102  1  0
 38103  1  0
 38104  1  0
 39105  1  0
 39106  1  0
 40107  1  0
 40108  1  0
 42109  1  0
M  CHG  2  43   1  44  -1
M  END
> <Name>
BR010677

$$$$
BR010678
  SciTegic05062102053D

 74 77  0  0  1  0            999 V2000
    2.8938    1.2233   -6.0436 C   0  0
    3.8748   -1.1499  -10.8162 C   0  0
    4.8867   -1.5146  -11.7104 C   0  0
    2.4953    1.6850   -4.7892 C   0  0
    4.8412    0.1975   -5.0474 C   0  0
    6.6160   -1.0195  -10.0695 C   0  0
    4.0668    0.4795   -6.1727 C   0  0
    5.6124   -0.6491   -9.1584 C   0  0
    4.2789   -0.7229   -9.5509 C   0  0
    6.2336   -1.4513  -11.3458 C   0  0
    3.2697    1.4030   -3.6639 C   0  0
    4.4427    0.6593   -3.7929 C   0  0
    4.4786    0.0017   -7.4701 C   0  0
    3.6958    0.7072    0.7773 C   0  0
   -0.5547    0.5239    2.2914 C   0  0
   -2.8559    2.3188    0.6646 C   0  0
   -2.3582    3.5959   -4.8424 C   0  0
    1.6326    1.3683   -0.4429 C   0  0  2  0  0  0
    0.2477    1.0609    0.1346 C   0  0  2  0  0  0
   -0.8328    1.9416   -0.4968 C   0  0  1  0  0  0
   -0.7278    1.9143   -2.0238 C   0  0  1  0  0  0
    1.5960    1.4133   -1.9744 C   0  0  1  0  0  0
    4.5495   -0.4645    1.1331 C   0  0
   -0.4179    0.8876    3.7388 C   0  0
   -4.1568    1.6725    1.0336 C   0  0
   -2.0667    3.4075   -6.3003 C   0  0
    6.2300    1.3133   -2.3670 C   0  0
   -1.7127    2.8712   -2.6878 C   0  0
    5.7168   -0.1971   -7.8629 N   0  0
    3.5762   -0.3009   -8.4515 N   0  0
    2.5937    0.3847    0.0115 N   0  0
    7.2332   -1.8298  -12.2822 N   0  3
    6.8816   -2.2149  -13.4230 O   0  5
    4.0103    1.8250    1.1689 O   0  0
   -1.3060   -0.3458    1.8716 O   0  0
   -2.5388    3.4549    0.9897 O   0  0
   -3.2063    4.3627   -4.4067 O   0  0
    8.4386   -1.7677  -11.9414 O   0  0
    0.5845    2.3138   -2.4232 O   0  0
    2.8687    1.8615   -2.4389 O   0  0
    5.2076    0.3770   -2.7015 O   0  0
    0.2770    1.3041    1.5425 O   0  0
   -2.1032    1.4519   -0.0757 O   0  0
   -1.5421    2.7917   -4.0912 O   0  0
    2.2791    1.4515   -6.9110 H   0  0
    2.8288   -1.1984  -11.0971 H   0  0
    4.6038   -1.8521  -12.7058 H   0  0
    1.5806    2.2639   -4.6957 H   0  0
    5.7574   -0.3823   -5.1379 H   0  0
    7.6620   -0.9683   -9.7821 H   0  0
    1.9910    2.3282   -0.0497 H   0  0
   -0.0001    0.0000    0.0001 H   0  0
   -0.7252    2.9653   -0.1157 H   0  0
   -0.9332    0.9060   -2.4066 H   0  0
    1.4162    0.4154   -2.3950 H   0  0
    5.3373   -0.6531    0.3861 H   0  0
    5.0814   -0.3228    2.0876 H   0  0
    4.0152   -1.4222    1.2387 H   0  0
    0.3644    0.2808    4.2014 H   0  0
   -1.3726    0.7409    4.2500 H   0  0
   -0.1370    1.9415    3.8229 H   0  0
   -4.9045    1.8779    0.2636 H   0  0
   -4.4924    2.0429    2.0055 H   0  0
   -4.0168    0.5899    1.1037 H   0  0
   -1.2937    4.1116   -6.6180 H   0  0
   -2.9806    3.5496   -6.8827 H   0  0
   -1.7020    2.3900   -6.4687 H   0  0
    6.7644    0.9686   -1.4783 H   0  0
    5.7816    2.2921   -2.1788 H   0  0
    6.9293    1.3899   -3.2030 H   0  0
   -1.5191    3.8923   -2.3588 H   0  0
   -2.7346    2.5902   -2.4327 H   0  0
    2.5694   -0.2286   -8.3834 H   0  0
    2.4503   -0.5860   -0.2448 H   0  0
  1  4  2  0
  1  7  1  0
  2  3  2  0
  2  9  1  0
  3 10  1  0
  4 11  1  0
  5  7  2  0
  5 12  1  0
  6  8  1  0
  6 10  2  0
  7 13  1  0
  8  9  2  0
  8 29  1  0
  9 30  1  0
 10 32  1  0
 11 12  2  0
 11 40  1  0
 12 41  1  0
 13 29  2  0
 13 30  1  0
 14 23  1  0
 14 31  1  0
 14 34  2  0
 15 24  1  0
 15 35  2  0
 15 42  1  0
 16 25  1  0
 16 36  2  0
 16 43  1  0
 17 26  1  0
 17 37  2  0
 17 44  1  0
 18 19  1  0
 18 22  1  0
 18 31  1  0
 19 20  1  0
 19 42  1  0
 20 21  1  0
 20 43  1  0
 21 28  1  0
 21 39  1  0
 22 39  1  0
 22 40  1  0
 27 41  1  0
 28 44  1  0
 32 33  1  0
 32 38  2  0
  1 45  1  0
  2 46  1  0
  3 47  1  0
  4 48  1  0
  5 49  1  0
  6 50  1  0
 18 51  1  0
 19 52  1  0
 20 53  1  0
 21 54  1  0
 22 55  1  0
 23 56  1  0
 23 57  1  0
 23 58  1  0
 24 59  1  0
 24 60  1  0
 24 61  1  0
 25 62  1  0
 25 63  1  0
 25 64  1  0
 26 65  1  0
 26 66  1  0
 26 67  1  0
 27 68  1  0
 27 69  1  0
 27 70  1  0
 28 71  1  0
 28 72  1  0
 30 73  1  0
 31 74  1  0
M  CHG  2  32   1  33  -1
M  END
> <Name>
BR010678

$$$$
BR010679
  SciTegic05062102053D

 73 76  0  0  1  0            999 V2000
    1.9314   -3.3465   -6.1461 C   0  0
    4.4854   -2.3472  -10.8189 C   0  0
    5.6517   -2.6037  -11.5474 C   0  0
    1.2117   -3.4030   -4.9526 C   0  0
    3.9924   -3.1848   -4.8957 C   0  0
    6.7336   -3.5968   -9.6054 C   0  0
    3.3218   -3.2375   -6.1176 C   0  0
    5.5701   -3.3466   -8.8585 C   0  0
    4.4847   -2.7336   -9.4783 C   0  0
    6.7570   -3.2173  -10.9534 C   0  0
    1.8823   -3.3503   -3.7306 C   0  0
    3.2726   -3.2412   -3.7022 C   0  0
    4.0660   -3.1795   -7.3521 C   0  0
   -2.9489   -2.3852    0.9259 C   0  0
   -1.9601    1.2972    0.6303 C   0  0
   -0.5781   -4.9802   -0.7549 C   0  0
    2.0851    2.3919   -3.8973 C   0  0
   -1.4240   -1.4908   -0.6420 C   0  0  1  0  0  0
   -0.7391   -0.1332   -0.8004 C   0  0  1  0  0  0
   -0.4804   -2.6337   -1.0165 C   0  0  2  0  0  0
   -0.0643   -0.0218   -2.1696 C   0  0  1  0  0  0
    0.2035   -2.3731   -2.3586 C   0  0  1  0  0  0
   -3.2456   -2.4561    2.3933 C   0  0
   -3.0176    2.3592    0.6347 C   0  0
   -1.4975   -6.1567   -0.8841 C   0  0
    2.6512    2.2726   -5.2799 C   0  0
    4.3558   -4.4309   -1.9508 C   0  0
    0.7314    1.2714   -2.3175 C   0  0
    5.2914   -3.6162   -7.5382 N   0  0
    3.5373   -2.6394   -8.4914 N   0  0
    7.9171   -3.4600  -11.7230 N   0  0
   -3.6287   -2.9235    0.0626 O   0  0
   -1.4018    0.8821    1.6368 O   0  0
    0.5888   -5.0588   -0.3953 O   0  0
    2.2827    3.3451   -3.1560 O   0  0
    0.8515   -1.1032   -2.3511 O   0  0
    1.1656   -3.4063   -2.5667 O   0  0
    3.9393   -3.1891   -2.5152 O   0  0
   -1.8241   -1.6404    0.7212 O   0  0
   -1.7290    0.8812   -0.6501 O   0  0
   -1.2427   -3.8373   -1.0959 O   0  0
    1.3285    1.2888   -3.6013 O   0  0
    1.3939   -3.3888   -7.0903 H   0  0
    3.6263   -1.8709  -11.2776 H   0  0
    5.6866   -2.3162  -12.5964 H   0  0
    0.1289   -3.4878   -4.9818 H   0  0
    5.0766   -3.1003   -4.8633 H   0  0
    7.5920   -4.0737   -9.1423 H   0  0
   -2.3429   -1.5299   -1.2405 H   0  0
   -0.0062   -0.0080    0.0071 H   0  0
    0.2643   -2.7781   -0.2236 H   0  0
   -0.8146   -0.0439   -2.9711 H   0  0
   -0.5186   -2.4258   -3.1832 H   0  0
   -2.7433   -3.3218    2.8318 H   0  0
   -4.3255   -2.5163    2.5509 H   0  0
   -2.8728   -1.5517    2.8827 H   0  0
   -2.5548    3.3438    0.5316 H   0  0
   -3.5980    2.3008    1.5589 H   0  0
   -3.6935    2.2014   -0.2108 H   0  0
   -2.0182   -6.3261    0.0616 H   0  0
   -0.9275   -7.0428   -1.1746 H   0  0
   -2.2413   -5.9522   -1.6598 H   0  0
    3.6230    1.7743   -5.2410 H   0  0
    2.7441    3.2643   -5.7296 H   0  0
    1.9763    1.6727   -5.8974 H   0  0
    4.8748   -4.2472   -1.0069 H   0  0
    5.0199   -4.9454   -2.6499 H   0  0
    3.4750   -5.0502   -1.7652 H   0  0
    1.5109    1.3176   -1.5570 H   0  0
    0.0680    2.1303   -2.2170 H   0  0
    2.6129   -2.2412   -8.5939 H   0  0
    7.9112   -3.2307  -12.6949 H   0  0
    8.6851   -3.9413  -11.3038 H   0  0
  1  4  2  0
  1  7  1  0
  2  3  2  0
  2  9  1  0
  3 10  1  0
  4 11  1  0
  5  7  2  0
  5 12  1  0
  6  8  1  0
  6 10  2  0
  7 13  1  0
  8  9  2  0
  8 29  1  0
  9 30  1  0
 10 31  1  0
 11 12  2  0
 11 37  1  0
 12 38  1  0
 13 29  2  0
 13 30  1  0
 14 23  1  0
 14 32  2  0
 14 39  1  0
 15 24  1  0
 15 33  2  0
 15 40  1  0
 16 25  1  0
 16 34  2  0
 16 41  1  0
 17 26  1  0
 17 35  2  0
 17 42  1  0
 18 19  1  0
 18 20  1  0
 18 39  1  0
 19 21  1  0
 19 40  1  0
 20 22  1  0
 20 41  1  0
 21 28  1  0
 21 36  1  0
 22 36  1  0
 22 37  1  0
 27 38  1  0
 28 42  1  0
  1 43  1  0
  2 44  1  0
  3 45  1  0
  4 46  1  0
  5 47  1  0
  6 48  1  0
 18 49  1  0
 19 50  1  0
 20 51  1  0
 21 52  1  0
 22 53  1  0
 23 54  1  0
 23 55  1  0
 23 56  1  0
 24 57  1  0
 24 58  1  0
 24 59  1  0
 25 60  1  0
 25 61  1  0
 25 62  1  0
 26 63  1  0
 26 64  1  0
 26 65  1  0
 27 66  1  0
 27 67  1  0
 27 68  1  0
 28 69  1  0
 28 70  1  0
 30 71  1  0
 31 72  1  0
 31 73  1  0
M  END
> <Name>
BR010679

$$$$
BR010680
  SciTegic05062102053D

 73 76  0  0  1  0            999 V2000
    4.7840   -4.1604   -4.1709 C   0  0
    9.6904   -6.4447   -4.4244 C   0  0
   10.6960   -6.8695   -5.2991 C   0  0
    3.5944   -3.4710   -3.9360 C   0  0
    5.3207   -2.6256   -5.9578 C   0  0
    9.6269   -5.7596   -7.1840 C   0  0
    5.6472   -3.7377   -5.1818 C   0  0
    8.6081   -5.3243   -6.3197 C   0  0
    8.6648   -5.6745   -4.9736 C   0  0
   10.6668   -6.5342   -6.6547 C   0  0
    3.2680   -2.3589   -4.7121 C   0  0
    4.1311   -1.9361   -5.7230 C   0  0
    6.8777   -4.4506   -5.4243 C   0  0
   -0.1514    2.7277   -1.1123 C   0  0
   -2.1676   -0.5982   -0.6712 C   0  0
    1.0128    1.9772   -4.7638 C   0  0
   -0.0513   -3.2307    2.0855 C   0  0
    0.7233    0.6893   -1.9268 C   0  0  1  0  0  0
    0.1626   -0.3970   -1.0083 C   0  0  2  0  0  0
    1.0679    0.1207   -3.3030 C   0  0  2  0  0  0
    1.1199   -1.5934   -0.9760 C   0  0  1  0  0  0
    1.9375   -1.1315   -3.1696 C   0  0  1  0  0  0
   -1.2083    3.7587   -1.3695 C   0  0
   -3.4304   -1.0693   -1.3265 C   0  0
    1.8918    2.9615   -5.4741 C   0  0
   -0.1861   -2.6172    3.4462 C   0  0
    3.0771   -1.0891   -7.6794 C   0  0
    0.5950   -2.7518   -0.1363 C   0  0
    7.4913   -4.5641   -6.5809 N   0  0
    7.5457   -5.1023   -4.4252 N   0  0
   11.7017   -6.9821   -7.5064 N   0  0
    0.6512    2.7844   -0.1904 O   0  0
   -2.1187   -0.1064    0.4481 O   0  0
   -0.2082    1.9681   -4.8419 O   0  0
   -0.3267   -4.3949    1.8285 O   0  0
    1.3267   -2.0883   -2.3049 O   0  0
    2.0984   -1.6910   -4.4725 O   0  0
    3.8238   -0.8514   -6.4877 O   0  0
   -0.2303    1.7405   -2.0532 O   0  0
   -1.1121   -0.8043   -1.5106 O   0  0
    1.7818    1.1166   -4.0347 O   0  0
    0.4192   -2.3021    1.1952 O   0  0
    5.0240   -5.0253   -3.5571 H   0  0
    9.7107   -6.7038   -3.3720 H   0  0
   11.5122   -7.4714   -4.9043 H   0  0
    2.9265   -3.8056   -3.1471 H   0  0
    5.9878   -2.2880   -6.7483 H   0  0
    9.6027   -5.4982   -8.2375 H   0  0
    1.6205    1.1273   -1.4713 H   0  0
   -0.0004    0.0130   -0.0050 H   0  0
    0.1516   -0.0940   -3.8664 H   0  0
    2.0891   -1.2829   -0.5645 H   0  0
    2.9371   -0.8744   -2.7968 H   0  0
   -0.8169    4.5334   -2.0335 H   0  0
   -1.5403    4.1936   -0.4233 H   0  0
   -2.0667    3.2849   -1.8544 H   0  0
   -3.8817   -0.2512   -1.8932 H   0  0
   -4.1244   -1.4424   -0.5691 H   0  0
   -3.1981   -1.8852   -2.0171 H   0  0
    2.0530    3.8384   -4.8422 H   0  0
    1.4342    3.2496   -6.4239 H   0  0
    2.8609    2.4984   -5.6816 H   0  0
    0.7455   -2.7423    4.0034 H   0  0
   -1.0200   -3.0794    3.9806 H   0  0
   -0.3897   -1.5473    3.3430 H   0  0
    2.9002   -0.1417   -8.1944 H   0  0
    2.1248   -1.5615   -7.4255 H   0  0
    3.6493   -1.7540   -8.3307 H   0  0
    1.3108   -3.5747   -0.1460 H   0  0
   -0.3628   -3.0945   -0.5293 H   0  0
    7.2691   -5.1551   -3.4535 H   0  0
   12.4648   -7.4935   -7.1149 H   0  0
   11.6984   -6.6987   -8.4639 H   0  0
  1  4  2  0
  1  7  1  0
  2  3  2  0
  2  9  1  0
  3 10  1  0
  4 11  1  0
  5  7  2  0
  5 12  1  0
  6  8  1  0
  6 10  2  0
  7 13  1  0
  8  9  2  0
  8 29  1  0
  9 30  1  0
 10 31  1  0
 11 12  2  0
 11 37  1  0
 12 38  1  0
 13 29  2  0
 13 30  1  0
 14 23  1  0
 14 32  2  0
 14 39  1  0
 15 24  1  0
 15 33  2  0
 15 40  1  0
 16 25  1  0
 16 34  2  0
 16 41  1  0
 17 26  1  0
 17 35  2  0
 17 42  1  0
 18 19  1  0
 18 20  1  0
 18 39  1  0
 19 21  1  0
 19 40  1  0
 20 22  1  0
 20 41  1  0
 21 28  1  0
 21 36  1  0
 22 36  1  0
 22 37  1  0
 27 38  1  0
 28 42  1  0
  1 43  1  0
  2 44  1  0
  3 45  1  0
  4 46  1  0
  5 47  1  0
  6 48  1  0
 18 49  1  0
 19 50  1  0
 20 51  1  0
 21 52  1  0
 22 53  1  0
 23 54  1  0
 23 55  1  0
 23 56  1  0
 24 57  1  0
 24 58  1  0
 24 59  1  0
 25 60  1  0
 25 61  1  0
 25 62  1  0
 26 63  1  0
 26 64  1  0
 26 65  1  0
 27 66  1  0
 27 67  1  0
 27 68  1  0
 28 69  1  0
 28 70  1  0
 30 71  1  0
 31 72  1  0
 31 73  1  0
M  END
> <Name>
BR010680

$$$$
BR010681
  SciTegic05062102053D

109113  0  0  1  0            999 V2000
    7.0776   -4.2178   -9.9701 C   0  0
    9.2120   -2.2481  -14.5441 C   0  0
   10.4077   -2.0643  -15.2463 C   0  0
    6.4008   -4.5575   -8.7987 C   0  0
    8.9354   -3.4003   -8.6597 C   0  0
   11.7317   -2.6897  -13.3011 C   0  0
    8.3450   -3.6393   -9.9006 C   0  0
   10.5404   -2.8790  -12.5804 C   0  0
    9.3213   -2.6556  -13.2141 C   0  0
   11.6462   -2.2807  -14.6379 C   0  0
    6.9913   -4.3185   -7.5578 C   0  0
    8.2587   -3.7399   -7.4883 C   0  0
    9.0449   -3.2884  -11.1123 C   0  0
   -1.0671    2.1466   -1.1363 C   0  0
    2.0436   -5.2254   -3.0131 C   0  0
   -0.7572   -1.3554    0.5847 C   0  0
   -0.0523    0.1030   -5.4743 C   0  0
    5.1907   -6.7917   -4.6932 C   0  0
    4.5955   -3.0774    0.8344 C   0  0
    5.5817    1.2335   -4.9684 C   0  0
    0.4788    0.5545   -1.9482 C   0  0  1  0  0  0
    3.1946   -3.8104   -4.5154 C   0  0  1  0  0  0
    0.8838   -0.2837   -0.7353 C   0  0  2  0  0  0
    3.3736   -2.2958   -4.6205 C   0  0  1  0  0  0
    0.6540   -0.2355   -3.2448 C   0  0  2  0  0  0
    4.4801   -4.5469   -4.8926 C   0  0  2  0  0  0
    2.2922   -0.8509   -0.9441 C   0  0  1  0  0  0
    3.9923   -1.9141   -5.9673 C   0  0  1  0  0  0
    5.0556   -4.0230   -6.2082 C   0  0  1  0  0  0
    2.0523   -0.8532   -3.3182 C   0  0  1  0  0  0
   -2.5316    2.4562   -1.0628 C   0  0
    1.7643   -5.4425   -1.5568 C   0  0
   -1.6978   -2.5220    0.6020 C   0  0
   -0.1850    1.1520   -6.5363 C   0  0
    4.7343   -8.2073   -4.8774 C   0  0
    5.9643   -3.5022    0.3961 C   0  0
    6.5346    1.4452   -3.8312 C   0  0
    9.6546   -4.5430   -5.7384 C   0  0
    2.7412   -1.7604    0.1933 C   0  0
    4.2972   -0.4222   -6.0605 C   0  0
   10.3488   -3.2715  -11.2756 N   0  0
    8.3824   -2.9250  -12.2516 N   0  0
   12.8321   -2.0847  -15.3811 N   0  0
   -0.1918    2.8574   -0.6611 O   0  0
    1.6054   -5.9353   -3.9082 O   0  0
   -0.6545   -0.5445    1.4953 O   0  0
   -0.3744   -1.0679   -5.6237 O   0  0
    6.3071   -6.4769   -4.3036 O   0  0
    4.0670   -3.4388    1.8771 O   0  0
    5.2089    2.1206   -5.7241 O   0  0
    2.3325   -1.6237   -2.1504 O   0  0
    5.2271   -2.6088   -6.1508 O   0  0
    6.3177   -4.6557   -6.4159 O   0  0
    8.8462   -3.5016   -6.2825 O   0  0
   -0.8765    0.9704   -1.8046 O   0  0
    2.8471   -4.1334   -3.1679 O   0  0
   -0.0555   -1.3505   -0.5852 O   0  0
    0.4733    0.6579   -4.3432 O   0  0
    4.1797   -5.9357   -5.0233 O   0  0
    4.0422   -2.2393   -0.0972 O   0  0
    5.2022   -0.0817   -5.0261 O   0  0
    2.0984   -1.6910   -4.4725 O   0  0
    6.6037   -4.4107  -10.9296 H   0  0
    8.2495   -2.0806  -15.0141 H   0  0
   10.3596   -1.7476  -16.2864 H   0  0
    5.4139   -5.0078   -8.8599 H   0  0
    9.9238   -2.9499   -8.5954 H   0  0
   12.6936   -2.8581  -12.8267 H   0  0
    1.0888    1.4661   -1.9840 H   0  0
    2.3557   -4.1426   -5.1397 H   0  0
    0.8284    0.3270    0.1731 H   0  0
    4.0047   -1.9535   -3.7902 H   0  0
   -0.1221   -1.0060   -3.3290 H   0  0
    5.2153   -4.4532   -4.0833 H   0  0
    3.0146   -0.0291   -1.0319 H   0  0
    3.3092   -2.1657   -6.7894 H   0  0
    4.4098   -4.2929   -7.0535 H   0  0
    2.8161   -0.0757   -3.4459 H   0  0
   -2.8299    3.0471   -1.9322 H   0  0
   -2.7510    2.9944   -0.1372 H   0  0
   -3.1003    1.5217   -1.0647 H   0  0
    2.5261   -6.0973   -1.1266 H   0  0
    0.7684   -5.8749   -1.4306 H   0  0
    1.7949   -4.4819   -1.0345 H   0  0
   -2.6588   -2.2301    0.1714 H   0  0
   -1.8270   -2.8792    1.6268 H   0  0
   -1.2789   -3.3344    0.0010 H   0  0
   -1.1653    1.6297   -6.4654 H   0  0
   -0.0462    0.7013   -7.5223 H   0  0
    0.5857    1.9146   -6.3911 H   0  0
    4.2875   -8.5764   -3.9509 H   0  0
    5.5792   -8.8338   -5.1743 H   0  0
    3.9791   -8.2448   -5.6678 H   0  0
    5.8961   -4.4162   -0.1989 H   0  0
    6.6019   -3.6578    1.2700 H   0  0
    6.4074   -2.7160   -0.2220 H   0  0
    5.9796    1.6980   -2.9244 H   0  0
    7.2428    2.2385   -4.0835 H   0  0
    7.0951    0.5232   -3.6513 H   0  0
   10.0624   -4.2238   -4.7762 H   0  0
   10.4670   -4.7748   -6.4317 H   0  0
    9.0375   -5.4328   -5.5928 H   0  0
    2.0595   -2.6064    0.2865 H   0  0
    2.7644   -1.2032    1.1305 H   0  0
    3.3794    0.1533   -5.9401 H   0  0
    4.7504   -0.1944   -7.0253 H   0  0
    7.3794   -2.8651  -12.3695 H   0  0
   12.7644   -1.8393  -16.3467 H   0  0
   13.7115   -2.2869  -14.9532 H   0  0
  1  4  2  0
  1  7  1  0
  2  3  2  0
  2  9  1  0
  3 10  1  0
  4 11  1  0
  5  7  2  0
  5 12  1  0
  6  8  1  0
  6 10  2  0
  7 13  1  0
  8  9  2  0
  8 41  1  0
  9 42  1  0
 10 43  1  0
 11 12  2  0
 11 53  1  0
 12 54  1  0
 13 41  2  0
 13 42  1  0
 14 31  1  0
 14 44  2  0
 14 55  1  0
 15 32  1  0
 15 45  2  0
 15 56  1  0
 16 33  1  0
 16 46  2  0
 16 57  1  0
 17 34  1  0
 17 47  2  0
 17 58  1  0
 18 35  1  0
 18 48  2  0
 18 59  1  0
 19 36  1  0
 19 49  2  0
 19 60  1  0
 20 37  1  0
 20 50  2  0
 20 61  1  0
 21 23  1  0
 21 25  1  0
 21 55  1  0
 22 24  1  0
 22 26  1  0
 22 56  1  0
 23 27  1  0
 23 57  1  0
 24 28  1  0
 24 62  1  0
 25 30  1  0
 25 58  1  0
 26 29  1  0
 26 59  1  0
 27 39  1  0
 27 51  1  0
 28 40  1  0
 28 52  1  0
 29 52  1  0
 29 53  1  0
 30 51  1  0
 30 62  1  0
 38 54  1  0
 39 60  1  0
 40 61  1  0
  1 63  1  0
  2 64  1  0
  3 65  1  0
  4 66  1  0
  5 67  1  0
  6 68  1  0
 21 69  1  0
 22 70  1  0
 23 71  1  0
 24 72  1  0
 25 73  1  0
 26 74  1  0
 27 75  1  0
 28 76  1  0
 29 77  1  0
 30 78  1  0
 31 79  1  0
 31 80  1  0
 31 81  1  0
 32 82  1  0
 32 83  1  0
 32 84  1  0
 33 85  1  0
 33 86  1  0
 33 87  1  0
 34 88  1  0
 34 89  1  0
 34 90  1  0
 35 91  1  0
 35 92  1  0
 35 93  1  0
 36 94  1  0
 36 95  1  0
 36 96  1  0
 37 97  1  0
 37 98  1  0
 37 99  1  0
 38100  1  0
 38101  1  0
 38102  1  0
 39103  1  0
 39104  1  0
 40105  1  0
 40106  1  0
 42107  1  0
 43108  1  0
 43109  1  0
M  END
> <Name>
BR010681

$$$$
BR010682
  SciTegic05062102053D

 74 77  0  0  1  0            999 V2000
    2.8938    1.2233   -6.0436 C   0  0
    3.8707   -1.1483  -10.8160 C   0  0
    4.8815   -1.5131  -11.7114 C   0  0
    2.4953    1.6850   -4.7892 C   0  0
    4.8412    0.1975   -5.0474 C   0  0
    6.6127   -1.0195  -10.0722 C   0  0
    4.0668    0.4795   -6.1727 C   0  0
    5.6103   -0.6490   -9.1599 C   0  0
    4.2763   -0.7220   -9.5510 C   0  0
    6.2288   -1.4507  -11.3482 C   0  0
    3.2697    1.4030   -3.6639 C   0  0
    4.4427    0.6593   -3.7929 C   0  0
    4.4786    0.0017   -7.4701 C   0  0
    3.6958    0.7072    0.7773 C   0  0
   -0.5547    0.5239    2.2914 C   0  0
   -2.8559    2.3188    0.6646 C   0  0
   -2.3582    3.5959   -4.8424 C   0  0
    1.6326    1.3683   -0.4429 C   0  0  2  0  0  0
    0.2477    1.0609    0.1346 C   0  0  2  0  0  0
   -0.8328    1.9416   -0.4968 C   0  0  1  0  0  0
   -0.7278    1.9143   -2.0238 C   0  0  1  0  0  0
    1.5960    1.4133   -1.9744 C   0  0  1  0  0  0
    4.5495   -0.4645    1.1331 C   0  0
   -0.4179    0.8876    3.7388 C   0  0
   -4.1568    1.6725    1.0336 C   0  0
   -2.0667    3.4075   -6.3003 C   0  0
    6.2300    1.3133   -2.3670 C   0  0
   -1.7127    2.8712   -2.6878 C   0  0
    5.7163   -0.1976   -7.8643 N   0  0
    3.5750   -0.3001   -8.4507 N   0  0
    7.2208   -1.8284  -12.2811 N   0  0
    2.5937    0.3847    0.0115 N   0  0
    4.0103    1.8250    1.1689 O   0  0
   -1.3060   -0.3458    1.8716 O   0  0
   -2.5388    3.4549    0.9897 O   0  0
   -3.2063    4.3627   -4.4067 O   0  0
    0.5845    2.3138   -2.4232 O   0  0
    2.8687    1.8615   -2.4389 O   0  0
    5.2076    0.3770   -2.7015 O   0  0
    0.2770    1.3041    1.5425 O   0  0
   -2.1032    1.4519   -0.0757 O   0  0
   -1.5421    2.7917   -4.0912 O   0  0
    2.2791    1.4515   -6.9110 H   0  0
    2.8243   -1.1957  -11.0957 H   0  0
    4.6008   -1.8515  -12.7070 H   0  0
    1.5806    2.2639   -4.6957 H   0  0
    5.7574   -0.3823   -5.1379 H   0  0
    7.6595   -0.9703   -9.7884 H   0  0
    1.9910    2.3282   -0.0497 H   0  0
   -0.0001    0.0000    0.0001 H   0  0
   -0.7252    2.9653   -0.1157 H   0  0
   -0.9332    0.9060   -2.4066 H   0  0
    1.4162    0.4154   -2.3950 H   0  0
    5.3373   -0.6531    0.3861 H   0  0
    5.0814   -0.3228    2.0876 H   0  0
    4.0152   -1.4222    1.2387 H   0  0
    0.3644    0.2808    4.2014 H   0  0
   -1.3726    0.7409    4.2500 H   0  0
   -0.1370    1.9415    3.8229 H   0  0
   -4.9045    1.8779    0.2636 H   0  0
   -4.4924    2.0429    2.0055 H   0  0
   -4.0168    0.5899    1.1037 H   0  0
   -1.2937    4.1116   -6.6180 H   0  0
   -2.9806    3.5496   -6.8827 H   0  0
   -1.7020    2.3900   -6.4687 H   0  0
    6.7644    0.9686   -1.4783 H   0  0
    5.7816    2.2921   -2.1788 H   0  0
    6.9293    1.3899   -3.2030 H   0  0
   -1.5191    3.8923   -2.3588 H   0  0
   -2.7346    2.5902   -2.4327 H   0  0
    2.5682   -0.2280   -8.3819 H   0  0
    6.9398   -2.1799  -13.1725 H   0  0
    8.1785   -1.8258  -11.9982 H   0  0
    2.4503   -0.5860   -0.2448 H   0  0
  1  4  2  0
  1  7  1  0
  2  3  2  0
  2  9  1  0
  3 10  1  0
  4 11  1  0
  5  7  2  0
  5 12  1  0
  6  8  1  0
  6 10  2  0
  7 13  1  0
  8  9  2  0
  8 29  1  0
  9 30  1  0
 10 31  1  0
 11 12  2  0
 11 38  1  0
 12 39  1  0
 13 29  2  0
 13 30  1  0
 14 23  1  0
 14 32  1  0
 14 33  2  0
 15 24  1  0
 15 34  2  0
 15 40  1  0
 16 25  1  0
 16 35  2  0
 16 41  1  0
 17 26  1  0
 17 36  2  0
 17 42  1  0
 18 19  1  0
 18 22  1  0
 18 32  1  0
 19 20  1  0
 19 40  1  0
 20 21  1  0
 20 41  1  0
 21 28  1  0
 21 37  1  0
 22 37  1  0
 22 38  1  0
 27 39  1  0
 28 42  1  0
  1 43  1  0
  2 44  1  0
  3 45  1  0
  4 46  1  0
  5 47  1  0
  6 48  1  0
 18 49  1  0
 19 50  1  0
 20 51  1  0
 21 52  1  0
 22 53  1  0
 23 54  1  0
 23 55  1  0
 23 56  1  0
 24 57  1  0
 24 58  1  0
 24 59  1  0
 25 60  1  0
 25 61  1  0
 25 62  1  0
 26 63  1  0
 26 64  1  0
 26 65  1  0
 27 66  1  0
 27 67  1  0
 27 68  1  0
 28 69  1  0
 28 70  1  0
 30 71  1  0
 31 72  1  0
 31 73  1  0
 32 74  1  0
M  END
> <Name>
BR010682

$$$$
BR010683
  SciTegic05062102053D

 40 39  0  0  0  0            999 V2000
    0.0400   -0.1777    1.2017 C   0  0
   -0.0379   -2.1195   -0.4567 C   0  0
    0.0389    2.2412    0.3880 C   0  0
    1.1315   -3.7924   -2.4440 C   0  0
   -0.0983   -5.6719   -1.3196 C   0  0
   -1.3837   -3.7771   -2.3519 C   0  0
    1.3060    4.7496   -0.0785 C   0  0
   -0.0136    4.8082   -2.2150 C   0  0
   -1.2097    4.7780   -0.0067 C   0  0
   -0.1002   -4.1756   -1.6248 C   0  0
    0.0220    4.3011   -0.7749 C   0  0
    0.0133   -1.5375    0.8574 N   0  0
    0.0172    0.8138    0.2114 N   0  0
    0.0894    0.1640    2.5513 N   0  3
   -0.0659   -1.4669   -1.4916 O   0  0
    0.0822    2.7938    1.4791 O   0  0
   -0.0500   -3.4804   -0.3746 O   0  0
    0.0047    2.8705   -0.8210 O   0  0
    1.1339   -2.7191   -2.6652 H   0  0
    2.0590   -4.0412   -1.9181 H   0  0
    1.1334   -4.3074   -3.4115 H   0  0
   -0.9803   -5.9513   -0.7320 H   0  0
    0.7743   -5.9460   -0.7158 H   0  0
   -0.0881   -6.2712   -2.2358 H   0  0
   -2.2673   -4.0519   -1.7646 H   0  0
   -1.4192   -2.7003   -2.5466 H   0  0
   -1.4706   -4.3068   -3.3075 H   0  0
    1.3353    4.3876    0.9555 H   0  0
    2.1966    4.3844   -0.6002 H   0  0
    1.3603    5.8430   -0.0248 H   0  0
   -0.9331    4.4887   -2.7185 H   0  0
    0.8172    4.3918   -2.7961 H   0  0
    0.0449    5.9005   -2.2602 H   0  0
   -2.1308    4.4564   -0.5061 H   0  0
   -1.2198    4.3932    1.0182 H   0  0
   -1.2450    5.8728    0.0320 H   0  0
    0.0325   -2.1957    1.6367 H   0  0
   -0.0193    0.4829   -0.7523 H   0  0
    0.1057   -0.5515    3.2741 H   0  0
    0.1101    1.1345    2.8539 H   0  0
  1 12  1  0
  1 13  1  0
  1 14  2  0
  2 12  1  0
  2 15  2  0
  2 17  1  0
  3 13  1  0
  3 16  2  0
  3 18  1  0
  4 10  1  0
  5 10  1  0
  6 10  1  0
  7 11  1  0
  8 11  1  0
  9 11  1  0
 10 17  1  0
 11 18  1  0
  4 19  1  0
  4 20  1  0
  4 21  1  0
  5 22  1  0
  5 23  1  0
  5 24  1  0
  6 25  1  0
  6 26  1  0
  6 27  1  0
  7 28  1  0
  7 29  1  0
  7 30  1  0
  8 31  1  0
  8 32  1  0
  8 33  1  0
  9 34  1  0
  9 35  1  0
  9 36  1  0
 12 37  1  0
 13 38  1  0
 14 39  1  0
 14 40  1  0
M  CHG  1  14   1
M  END
> <Name>
BR010683

$$$$
BR010684
  SciTegic05062102053D

 45 44  0  0  0  0            999 V2000
    0.0164   -0.2209   -0.1991 C   0  0
   -2.0792   -0.2804   -1.6275 C   0  0
    0.0111    1.5835    1.5217 C   0  0
   -4.6025   -1.3720   -2.3985 C   0  0
   -5.3822    1.0117   -2.5382 C   0  0
   -3.5365    0.2095   -4.0409 C   0  0
   -0.8813    2.7499    3.9697 C   0  0
    1.5101    3.4467    4.2942 C   0  0
    0.2081    4.3202    2.3320 C   0  0
   -4.1838    0.0735   -2.6634 C   0  0
    0.4219    3.1328    3.2697 C   0  0
    2.3946   -3.0403   -1.3350 C   0  0
    0.6553   -1.2162   -0.7314 N   0  0
   -1.2512    0.2113   -0.6160 N   0  0
    0.5751    0.4993    0.8554 N   0  0
   -1.8362   -1.2249   -2.3704 O   0  0
   -1.0821    2.0871    1.2864 O   0  0
    3.1192   -0.6874   -0.5434 O   0  0
    2.0405   -2.2625    1.1056 O   0  0
   -3.2275    0.4602   -1.6701 O   0  0
    0.8685    2.0145    2.4948 O   0  0
    3.5942   -3.6300   -1.1130 F   0  0
    2.3796   -2.6365   -2.6284 F   0  0
    1.4459   -3.9986   -1.2014 F   0  0
    2.1247   -1.6961   -0.2279 S   0  0
   -3.7450   -2.0486   -2.4875 H   0  0
   -5.0363   -1.4898   -1.4002 H   0  0
   -5.3389   -1.7075   -3.1377 H   0  0
   -5.0864    2.0499   -2.7275 H   0  0
   -5.7920    0.9879   -1.5220 H   0  0
   -6.1792    0.7449   -3.2398 H   0  0
   -3.2361    1.2463   -4.2311 H   0  0
   -2.6525   -0.4294   -4.1360 H   0  0
   -4.2458   -0.0571   -4.8327 H   0  0
   -1.6649    2.5239    3.2378 H   0  0
   -0.7495    1.8779    4.6186 H   0  0
   -1.2569    3.5805    4.5783 H   0  0
    2.4469    3.7220    3.7963 H   0  0
    1.7338    2.5667    4.9080 H   0  0
    1.2161    4.2665    4.9575 H   0  0
    1.1427    4.5950    1.8298 H   0  0
   -0.5434    4.0997    1.5670 H   0  0
   -0.1141    5.2057    2.8918 H   0  0
   -1.6247    1.0045   -0.1029 H   0  0
    1.4925    0.2009    1.1716 H   0  0
  1 13  2  0
  1 14  1  0
  1 15  1  0
  2 14  1  0
  2 16  2  0
  2 20  1  0
  3 15  1  0
  3 17  2  0
  3 21  1  0
  4 10  1  0
  5 10  1  0
  6 10  1  0
  7 11  1  0
  8 11  1  0
  9 11  1  0
 10 20  1  0
 11 21  1  0
 12 22  1  0
 12 23  1  0
 12 24  1  0
 12 25  1  0
 13 25  1  0
 18 25  2  0
 19 25  2  0
  4 26  1  0
  4 27  1  0
  4 28  1  0
  5 29  1  0
  5 30  1  0
  5 31  1  0
  6 32  1  0
  6 33  1  0
  6 34  1  0
  7 35  1  0
  7 36  1  0
  7 37  1  0
  8 38  1  0
  8 39  1  0
  8 40  1  0
  9 41  1  0
  9 42  1  0
  9 43  1  0
 14 44  1  0
 15 45  1  0
M  END
> <Name>
BR010684

$$$$
BR010685
  SciTegic05062102053D

109112  0  0  1  0            999 V2000
    2.0032   -6.5057   -0.8077 C   0  0
    0.9711   -8.6375    4.7075 C   0  0
    1.6511   -9.7274    5.2608 C   0  0
    1.8381   -5.5754   -1.8339 C   0  0
    1.1376   -4.9056    0.7821 C   0  0
    3.1780   -9.8298    3.3671 C   0  0
    1.6529   -6.1708    0.5003 C   0  0
    2.5063   -8.7356    2.7964 C   0  0
    1.4293   -8.1717    3.4747 C   0  0
    2.7352  -10.3145    4.6043 C   0  0
    1.3228   -4.3103   -1.5521 C   0  0
    0.9725   -3.9753   -0.2440 C   0  0
    1.8234   -7.1331    1.5614 C   0  0
    2.3915   -0.6495   -7.1568 C   0  0
    5.4920    0.5898   -5.2922 C   0  0
   -0.2241   -2.6529   -5.0771 C   0  0
    6.4976   -2.3688    0.0273 C   0  0
    4.7613  -11.7569    5.0512 C   0  0
    4.3826  -14.3048    5.3410 C   0  0
    7.1519  -10.9499    4.5987 C   0  0
    3.1663   -1.4657   -5.0789 C   0  0  1  0  0  0
    4.2220   -0.9917   -4.0799 C   0  0  1  0  0  0
    1.9413   -2.0335   -4.3620 C   0  0  2  0  0  0
    4.5014   -2.0715   -3.0318 C   0  0  1  0  0  0
    2.3450   -3.0333   -3.2784 C   0  0  1  0  0  0
    2.0007    0.6078   -7.8727 C   0  0
    6.7860    0.7685   -6.0268 C   0  0
   -0.9592   -3.3703   -6.1684 C   0  0
    6.6067   -3.5645    0.9243 C   0  0
    3.3719  -16.8104    4.4275 C   0  0
    5.4018  -17.8125    5.5160 C   0  0
    3.7066  -16.5943    6.9127 C   0  0
    9.4723  -10.6997    2.9650 C   0  0
    9.6434   -8.3699    3.8881 C   0  0
    9.8140  -10.3429    5.4329 C   0  0
   -0.9485   -2.5909   -0.0227 C   0  0
    5.4607   -1.5895   -1.9479 C   0  0
    4.3969  -16.6631    5.5512 C   0  0
    9.1700   -9.7962    4.1597 C   0  0
    2.7363   -8.0772    1.6102 N   0  0
    1.0122   -7.1491    2.6618 N   0  0
    3.3965  -11.4145    5.1965 N   0  0
    5.1630  -13.1097    5.1267 N   0  0
    5.7339  -10.7729    4.7748 N   0  3
    2.3678   -1.7626   -7.6643 O   0  0
    4.6511    1.4690   -5.1617 O   0  0
   -0.7681   -2.1260   -4.1161 O   0  0
    7.0842   -1.3124    0.2194 O   0  0
    3.1688  -14.2513    5.4939 O   0  0
    7.7208  -12.0310    4.6703 O   0  0
    3.2855   -2.4463   -2.3821 O   0  0
    1.1656   -3.4063   -2.5667 O   0  0
    0.4680   -2.7431    0.0441 O   0  0
    2.7670   -0.3516   -5.8792 O   0  0
    5.4097   -0.6837   -4.8050 O   0  0
    1.1175   -2.6845   -5.3282 O   0  0
    5.6552   -2.6399   -1.0186 O   0  0
    5.1247  -15.4476    5.3473 O   0  0
    7.7520   -9.7512    4.3493 O   0  0
    2.4060   -7.4876   -1.0439 H   0  0
    0.1292   -8.1804    5.2149 H   0  0
    1.3226  -10.1200    6.2207 H   0  0
    2.1130   -5.8427   -2.8505 H   0  0
    0.8610   -4.6353    1.7991 H   0  0
    4.0209  -10.2882    2.8591 H   0  0
    3.5938   -2.2047   -5.7682 H   0  0
    3.8713   -0.0671   -3.6034 H   0  0
    1.3473   -1.2163   -3.9335 H   0  0
    4.9490   -2.9571   -3.5019 H   0  0
    2.7627   -3.9456   -3.7229 H   0  0
    0.9331    0.7962   -7.7355 H   0  0
    2.2435    0.5206   -8.9348 H   0  0
    2.5599    1.4508   -7.4564 H   0  0
    7.5590    1.1164   -5.3372 H   0  0
    6.6522    1.4791   -6.8463 H   0  0
    7.1000   -0.1915   -6.4469 H   0  0
   -1.2185   -2.6682   -6.9646 H   0  0
   -1.8577   -3.8419   -5.7625 H   0  0
   -0.3162   -4.1501   -6.5869 H   0  0
    5.8371   -3.5186    1.6987 H   0  0
    7.6028   -3.6024    1.3724 H   0  0
    6.4553   -4.4742    0.3359 H   0  0
    2.6488  -15.9872    4.4494 H   0  0
    3.8516  -16.8258    3.4434 H   0  0
    2.7930  -17.7336    4.5448 H   0  0
    6.1391  -17.7109    6.3205 H   0  0
    5.9670  -17.8081    4.5770 H   0  0
    4.9080  -18.7841    5.6189 H   0  0
    4.4416  -16.4887    7.7188 H   0  0
    3.0086  -15.7527    6.9689 H   0  0
    3.1545  -17.5189    7.1168 H   0  0
    9.1340  -11.7244    3.1560 H   0  0
    8.9872  -10.3377    2.0526 H   0  0
   10.5514  -10.7593    2.7830 H   0  0
    9.4285   -7.7182    4.7427 H   0  0
    9.1135   -7.9394    3.0307 H   0  0
   10.7186   -8.3327    3.6855 H   0  0
    9.5973   -9.6950    6.2900 H   0  0
    9.4578  -11.3521    5.6638 H   0  0
   10.9053  -10.3725    5.3358 H   0  0
   -1.2175   -1.5622    0.2294 H   0  0
   -1.4237   -3.2846    0.6755 H   0  0
   -1.2824   -2.8139   -1.0388 H   0  0
    5.0373   -0.7269   -1.4332 H   0  0
    6.4187   -1.3192   -2.3920 H   0  0
    0.2415   -6.5207    2.8481 H   0  0
    2.8323  -12.0514    5.7719 H   0  0
    6.1642  -13.2666    5.0112 H   0  0
    5.4071   -9.8185    4.6365 H   0  0
  1  4  2  0
  1  7  1  0
  2  3  2  0
  2  9  1  0
  3 10  1  0
  4 11  1  0
  5  7  2  0
  5 12  1  0
  6  8  1  0
  6 10  2  0
  7 13  1  0
  8  9  2  0
  8 40  1  0
  9 41  1  0
 10 42  1  0
 11 12  2  0
 11 52  1  0
 12 53  1  0
 13 40  2  0
 13 41  1  0
 14 26  1  0
 14 45  2  0
 14 54  1  0
 15 27  1  0
 15 46  2  0
 15 55  1  0
 16 28  1  0
 16 47  2  0
 16 56  1  0
 17 29  1  0
 17 48  2  0
 17 57  1  0
 18 42  1  0
 18 43  1  0
 18 44  2  0
 19 43  1  0
 19 49  2  0
 19 58  1  0
 20 44  1  0
 20 50  2  0
 20 59  1  0
 21 22  1  0
 21 23  1  0
 21 54  1  0
 22 24  1  0
 22 55  1  0
 23 25  1  0
 23 56  1  0
 24 37  1  0
 24 51  1  0
 25 51  1  0
 25 52  1  0
 30 38  1  0
 31 38  1  0
 32 38  1  0
 33 39  1  0
 34 39  1  0
 35 39  1  0
 36 53  1  0
 37 57  1  0
 38 58  1  0
 39 59  1  0
  1 60  1  0
  2 61  1  0
  3 62  1  0
  4 63  1  0
  5 64  1  0
  6 65  1  0
 21 66  1  0
 22 67  1  0
 23 68  1  0
 24 69  1  0
 25 70  1  0
 26 71  1  0
 26 72  1  0
 26 73  1  0
 27 74  1  0
 27 75  1  0
 27 76  1  0
 28 77  1  0
 28 78  1  0
 28 79  1  0
 29 80  1  0
 29 81  1  0
 29 82  1  0
 30 83  1  0
 30 84  1  0
 30 85  1  0
 31 86  1  0
 31 87  1  0
 31 88  1  0
 32 89  1  0
 32 90  1  0
 32 91  1  0
 33 92  1  0
 33 93  1  0
 33 94  1  0
 34 95  1  0
 34 96  1  0
 34 97  1  0
 35 98  1  0
 35 99  1  0
 35100  1  0
 36101  1  0
 36102  1  0
 36103  1  0
 37104  1  0
 37105  1  0
 41106  1  0
 42107  1  0
 43108  1  0
 44109  1  0
M  CHG  1  44   1
M  END
> <Name>
BR010685

$$$$
BR010686
  SciTegic05062102053D

109112  0  0  1  0            999 V2000
    4.4913   -3.9493   -6.0773 C   0  0
    7.8627   -8.1177   -6.8626 C   0  0
    9.0572   -8.7028   -6.4297 C   0  0
    3.4689   -3.0157   -5.9082 C   0  0
    4.7805   -4.0666   -3.6816 C   0  0
    9.1616   -7.2309   -4.4930 C   0  0
    5.1471   -4.4749   -4.9640 C   0  0
    7.9622   -6.6316   -4.9133 C   0  0
    7.3481   -7.0859   -6.0770 C   0  0
    9.6968   -8.2688   -5.2662 C   0  0
    3.1024   -2.6074   -4.6258 C   0  0
    3.7581   -3.1329   -3.5124 C   0  0
    6.2042   -5.4408   -5.1391 C   0  0
   -3.8550   -1.3362   -3.9160 C   0  0
   -2.5432    0.8606   -6.8782 C   0  0
   -0.5843   -1.0950   -1.7954 C   0  0
   -1.8213   -1.6654  -10.3577 C   0  0
   11.3693   -9.0379   -3.5352 C   0  0
   13.8804   -8.9639   -4.1739 C   0  0
   10.7760   -9.2584   -1.0512 C   0  0
   -1.6402   -1.5938   -4.6984 C   0  0  1  0  0  0
   -1.6810   -1.2265   -6.1821 C   0  0  2  0  0  0
   -0.2438   -1.3752   -4.1169 C   0  0  2  0  0  0
   -0.5631   -1.9621   -6.9292 C   0  0  1  0  0  0
    0.8173   -2.0551   -4.9852 C   0  0  1  0  0  0
   -4.7473   -0.4095   -3.1474 C   0  0
   -2.2197    2.3226   -6.9416 C   0  0
   -0.5020   -1.8144   -0.4832 C   0  0
   -3.1680   -2.0806  -10.8675 C   0  0
   16.1882   -7.5811   -5.1202 C   0  0
   17.4763   -9.0157   -3.5103 C   0  0
   16.2084  -10.0825   -5.3978 C   0  0
   10.6324   -8.2644    1.6148 C   0  0
    8.4142   -9.4368    1.7343 C   0  0
   10.5124  -10.7654    1.3594 C   0  0
    4.0940   -1.6148   -1.7129 C   0  0
   -0.4915   -1.5917   -8.4058 C   0  0
   16.2371   -8.9270   -4.3984 C   0  0
    9.8021   -9.4381    1.0973 C   0  0
    7.2372   -5.6097   -4.3444 N   0  0
    6.2262   -6.3065   -6.1970 N   0  0
   10.9025   -8.8857   -4.8619 N   0  0
   12.7576   -9.0676   -3.2729 N   0  0
   10.4704   -9.1061   -2.4499 N   0  3
   -4.2223   -2.4004   -4.3953 O   0  0
   -3.5887    0.3719   -7.2848 O   0  0
   -0.9368    0.0704   -1.9169 O   0  0
   -0.9512   -1.1599  -11.0538 O   0  0
   13.7162   -8.8256   -5.3794 O   0  0
   11.9116   -9.3525   -0.6050 O   0  0
    0.7060   -1.6411   -6.3462 O   0  0
    2.0984   -1.6910   -4.4725 O   0  0
    3.4093   -2.7425   -2.2547 O   0  0
   -2.5965   -0.8099   -3.9905 O   0  0
   -1.5043    0.1865   -6.3061 O   0  0
   -0.2109   -1.9351   -2.8045 O   0  0
   -1.7212   -1.9360   -9.0186 O   0  0
   15.0896   -9.0303   -3.5492 O   0  0
    9.6284   -9.2853   -0.3153 O   0  0
    4.7651   -4.2573   -7.0835 H   0  0
    7.3647   -8.4525   -7.7655 H   0  0
    9.4904   -9.5099   -7.0164 H   0  0
    2.9623   -2.6102   -6.7796 H   0  0
    5.2858   -4.4712   -2.8070 H   0  0
    9.6609   -6.8957   -3.5891 H   0  0
   -1.9341   -2.6436   -4.5725 H   0  0
   -2.6664   -1.4675   -6.5972 H   0  0
   -0.0389   -0.3028   -4.0116 H   0  0
   -0.7173   -3.0464   -6.8546 H   0  0
    0.7350   -3.1473   -4.9181 H   0  0
   -4.7152   -0.6605   -2.0843 H   0  0
   -5.7693   -0.4773   -3.5288 H   0  0
   -4.3968    0.6191   -3.2735 H   0  0
   -2.5629    2.8183   -6.0302 H   0  0
   -2.6884    2.7683   -7.8227 H   0  0
   -1.1364    2.4512   -7.0217 H   0  0
   -1.4571   -2.2986   -0.2652 H   0  0
   -0.2367   -1.1106    0.3097 H   0  0
    0.2739   -2.5834   -0.5394 H   0  0
   -3.1314   -3.1177  -11.2098 H   0  0
   -3.4781   -1.4175  -11.6791 H   0  0
   -3.9007   -2.0061  -10.0587 H   0  0
   15.3002   -7.5134   -5.7588 H   0  0
   16.1730   -6.7448   -4.4137 H   0  0
   17.0542   -7.4601   -5.7811 H   0  0
   17.5154   -9.9798   -2.9904 H   0  0
   17.4538   -8.2455   -2.7308 H   0  0
   18.3977   -8.8963   -4.0892 H   0  0
   16.2435  -11.0480   -4.8803 H   0  0
   15.3075  -10.0560   -6.0192 H   0  0
   17.0854  -10.0516   -6.0545 H   0  0
   11.6294   -8.2618    1.1599 H   0  0
   10.1506   -7.3045    1.4019 H   0  0
   10.7867   -8.3416    2.6971 H   0  0
    7.8150  -10.2773    1.3659 H   0  0
    7.8643   -8.5263    1.4699 H   0  0
    8.4705   -9.5032    2.8256 H   0  0
    9.9171  -11.6074    0.9882 H   0  0
   11.4954  -10.7986    0.8784 H   0  0
   10.6451  -10.9306    2.4347 H   0  0
    3.7210   -1.4102   -0.7063 H   0  0
    3.9331   -0.7461   -2.3562 H   0  0
    5.1626   -1.8372   -1.6647 H   0  0
    0.3172   -2.1403   -8.8898 H   0  0
   -0.3237   -0.5196   -8.5145 H   0  0
    5.5397   -6.3662   -6.9377 H   0  0
   11.5230   -9.2400   -5.5998 H   0  0
   13.0058   -9.1804   -2.2900 H   0  0
    9.4796   -8.9925   -2.6557 H   0  0
  1  4  2  0
  1  7  1  0
  2  3  2  0
  2  9  1  0
  3 10  1  0
  4 11  1  0
  5  7  2  0
  5 12  1  0
  6  8  1  0
  6 10  2  0
  7 13  1  0
  8  9  2  0
  8 40  1  0
  9 41  1  0
 10 42  1  0
 11 12  2  0
 11 52  1  0
 12 53  1  0
 13 40  2  0
 13 41  1  0
 14 26  1  0
 14 45  2  0
 14 54  1  0
 15 27  1  0
 15 46  2  0
 15 55  1  0
 16 28  1  0
 16 47  2  0
 16 56  1  0
 17 29  1  0
 17 48  2  0
 17 57  1  0
 18 42  1  0
 18 43  1  0
 18 44  2  0
 19 43  1  0
 19 49  2  0
 19 58  1  0
 20 44  1  0
 20 50  2  0
 20 59  1  0
 21 22  1  0
 21 23  1  0
 21 54  1  0
 22 24  1  0
 22 55  1  0
 23 25  1  0
 23 56  1  0
 24 37  1  0
 24 51  1  0
 25 51  1  0
 25 52  1  0
 30 38  1  0
 31 38  1  0
 32 38  1  0
 33 39  1  0
 34 39  1  0
 35 39  1  0
 36 53  1  0
 37 57  1  0
 38 58  1  0
 39 59  1  0
  1 60  1  0
  2 61  1  0
  3 62  1  0
  4 63  1  0
  5 64  1  0
  6 65  1  0
 21 66  1  0
 22 67  1  0
 23 68  1  0
 24 69  1  0
 25 70  1  0
 26 71  1  0
 26 72  1  0
 26 73  1  0
 27 74  1  0
 27 75  1  0
 27 76  1  0
 28 77  1  0
 28 78  1  0
 28 79  1  0
 29 80  1  0
 29 81  1  0
 29 82  1  0
 30 83  1  0
 30 84  1  0
 30 85  1  0
 31 86  1  0
 31 87  1  0
 31 88  1  0
 32 89  1  0
 32 90  1  0
 32 91  1  0
 33 92  1  0
 33 93  1  0
 33 94  1  0
 34 95  1  0
 34 96  1  0
 34 97  1  0
 35 98  1  0
 35 99  1  0
 35100  1  0
 36101  1  0
 36102  1  0
 36103  1  0
 37104  1  0
 37105  1  0
 41106  1  0
 42107  1  0
 43108  1  0
 44109  1  0
M  CHG  1  44   1
M  END
> <Name>
BR010686

$$$$
BR010687
  SciTegic05062102053D

145149  0  0  1  0            999 V2000
    7.0776   -4.2178   -9.9701 C   0  0
   11.9985   -2.7636  -13.0841 C   0  0
   11.9812   -2.3565  -14.4223 C   0  0
    6.4008   -4.5575   -8.7987 C   0  0
    8.9354   -3.4003   -8.6597 C   0  0
    9.5475   -2.2877  -14.4460 C   0  0
    8.3450   -3.6393   -9.9006 C   0  0
    9.5462   -2.6965  -13.1017 C   0  0
   10.7608   -2.9221  -12.4600 C   0  0
   10.7786   -2.1221  -15.0930 C   0  0
    6.9913   -4.3185   -7.5578 C   0  0
    8.2587   -3.7399   -7.4883 C   0  0
    9.0449   -3.2884  -11.1123 C   0  0
   -1.0671    2.1466   -1.1363 C   0  0
    2.0436   -5.2254   -3.0131 C   0  0
   -0.7572   -1.3554    0.5847 C   0  0
   -0.0523    0.1030   -5.4743 C   0  0
    5.1907   -6.7917   -4.6932 C   0  0
    4.5955   -3.0774    0.8344 C   0  0
    5.5817    1.2335   -4.9684 C   0  0
    9.8487   -0.8959  -17.0972 C   0  0
   10.1970   -1.9689  -19.4309 C   0  0
    8.0807    0.9480  -16.8837 C   0  0
    0.4788    0.5545   -1.9482 C   0  0  1  0  0  0
    3.1946   -3.8104   -4.5154 C   0  0  1  0  0  0
    0.8838   -0.2837   -0.7353 C   0  0  2  0  0  0
    3.3736   -2.2958   -4.6205 C   0  0  1  0  0  0
    0.6540   -0.2355   -3.2448 C   0  0  2  0  0  0
    4.4801   -4.5469   -4.8926 C   0  0  2  0  0  0
    2.2922   -0.8509   -0.9441 C   0  0  1  0  0  0
    3.9923   -1.9141   -5.9673 C   0  0  1  0  0  0
    5.0556   -4.0230   -6.2082 C   0  0  1  0  0  0
    2.0523   -0.8532   -3.3182 C   0  0  1  0  0  0
   -2.5316    2.4562   -1.0628 C   0  0
    1.7643   -5.4425   -1.5568 C   0  0
   -1.6978   -2.5220    0.6020 C   0  0
   -0.1850    1.1520   -6.5363 C   0  0
    4.7343   -8.2073   -4.8774 C   0  0
    5.9643   -3.5022    0.3961 C   0  0
    6.5346    1.4452   -3.8312 C   0  0
    9.9707   -4.1590  -21.2438 C   0  0
    9.5685   -2.4146  -23.0058 C   0  0
   11.7566   -2.4666  -21.7738 C   0  0
    5.3905    1.8850  -16.8636 C   0  0
    6.1236    3.3858  -14.9875 C   0  0
    7.1645    3.6256  -17.2606 C   0  0
    9.6546   -4.5430   -5.7384 C   0  0
    2.7412   -1.7604    0.1933 C   0  0
    4.2972   -0.4222   -6.0605 C   0  0
   10.2531   -2.7207  -21.6754 C   0  0
    6.5634    2.6490  -16.2508 C   0  0
    8.4917   -2.9289  -12.2488 N   0  0
   10.4099   -3.2995  -11.1892 N   0  0
   10.8030   -1.7116  -16.4453 N   0  0
    9.6074   -1.0569  -18.4803 N   0  0
    9.0845    0.0477  -16.3787 N   0  3
   -0.1918    2.8574   -0.6611 O   0  0
    1.6054   -5.9353   -3.9082 O   0  0
   -0.6545   -0.5445    1.4953 O   0  0
   -0.3744   -1.0679   -5.6237 O   0  0
    6.3071   -6.4769   -4.3036 O   0  0
    4.0670   -3.4388    1.8771 O   0  0
    5.2089    2.1206   -5.7241 O   0  0
   11.0537   -2.7749  -19.0901 O   0  0
    7.7472    1.0112  -18.0595 O   0  0
    2.3325   -1.6237   -2.1504 O   0  0
    5.2271   -2.6088   -6.1508 O   0  0
    6.3177   -4.6557   -6.4159 O   0  0
    8.8462   -3.5016   -6.2825 O   0  0
   -0.8765    0.9704   -1.8046 O   0  0
    2.8471   -4.1334   -3.1679 O   0  0
   -0.0555   -1.3505   -0.5852 O   0  0
    0.4733    0.6579   -4.3432 O   0  0
    4.1797   -5.9357   -5.0233 O   0  0
    4.0422   -2.2393   -0.0972 O   0  0
    5.2022   -0.0817   -5.0261 O   0  0
    9.7044   -1.8346  -20.6943 O   0  0
    7.5722    1.7071  -15.8716 O   0  0
    2.0984   -1.6910   -4.4725 O   0  0
    6.6037   -4.4107  -10.9296 H   0  0
   12.9305   -2.9464  -12.5616 H   0  0
   12.9265   -2.2229  -14.9437 H   0  0
    5.4139   -5.0078   -8.8599 H   0  0
    9.9238   -2.9499   -8.5954 H   0  0
    8.6143   -2.1048  -14.9700 H   0  0
    1.0888    1.4661   -1.9840 H   0  0
    2.3557   -4.1426   -5.1397 H   0  0
    0.8284    0.3270    0.1731 H   0  0
    4.0047   -1.9535   -3.7902 H   0  0
   -0.1221   -1.0060   -3.3290 H   0  0
    5.2153   -4.4532   -4.0833 H   0  0
    3.0146   -0.0291   -1.0319 H   0  0
    3.3092   -2.1657   -6.7894 H   0  0
    4.4098   -4.2929   -7.0535 H   0  0
    2.8161   -0.0757   -3.4459 H   0  0
   -2.8299    3.0471   -1.9322 H   0  0
   -2.7510    2.9944   -0.1372 H   0  0
   -3.1003    1.5217   -1.0647 H   0  0
    2.5261   -6.0973   -1.1266 H   0  0
    0.7684   -5.8749   -1.4306 H   0  0
    1.7949   -4.4819   -1.0345 H   0  0
   -2.6588   -2.2301    0.1714 H   0  0
   -1.8270   -2.8792    1.6268 H   0  0
   -1.2789   -3.3344    0.0010 H   0  0
   -1.1653    1.6297   -6.4654 H   0  0
   -0.0462    0.7013   -7.5223 H   0  0
    0.5857    1.9146   -6.3911 H   0  0
    4.2875   -8.5764   -3.9509 H   0  0
    5.5792   -8.8338   -5.1743 H   0  0
    3.9791   -8.2448   -5.6678 H   0  0
    5.8961   -4.4162   -0.1989 H   0  0
    6.6019   -3.6578    1.2700 H   0  0
    6.4074   -2.7160   -0.2220 H   0  0
    5.9796    1.6980   -2.9244 H   0  0
    7.2428    2.2385   -4.0835 H   0  0
    7.0951    0.5232   -3.6513 H   0  0
   10.4604   -4.3826  -20.2892 H   0  0
    8.8970   -4.3443  -21.1356 H   0  0
   10.3733   -4.8720  -21.9722 H   0  0
    9.7684   -1.3836  -23.3193 H   0  0
    8.4799   -2.5038  -22.9142 H   0  0
    9.9061   -3.0898  -23.7987 H   0  0
   11.9594   -1.4349  -22.0834 H   0  0
   12.2593   -2.6456  -20.8179 H   0  0
   12.2120   -3.1125  -22.5332 H   0  0
    5.7021    1.3548  -17.7706 H   0  0
    4.9726    1.1565  -16.1611 H   0  0
    4.5917    2.5718  -17.1659 H   0  0
    6.9621    3.9353  -14.5445 H   0  0
    5.7796    2.6793  -14.2235 H   0  0
    5.3150    4.0943  -15.1938 H   0  0
    8.0059    4.1738  -16.8214 H   0  0
    7.5194    3.1096  -18.1587 H   0  0
    6.4273    4.3792  -17.5604 H   0  0
   10.0624   -4.2238   -4.7762 H   0  0
   10.4670   -4.7748   -6.4317 H   0  0
    9.0375   -5.4328   -5.5928 H   0  0
    2.0595   -2.6064    0.2865 H   0  0
    2.7644   -1.2032    1.1305 H   0  0
    3.3794    0.1533   -5.9401 H   0  0
    4.7504   -0.1944   -7.0253 H   0  0
   11.0508   -3.5411  -10.4446 H   0  0
   11.5739   -2.0562  -17.0302 H   0  0
    8.9043   -0.4282  -18.8688 H   0  0
    9.2132    0.0822  -15.3692 H   0  0
  1  4  2  0
  1  7  1  0
  2  3  2  0
  2  9  1  0
  3 10  1  0
  4 11  1  0
  5  7  2  0
  5 12  1  0
  6  8  1  0
  6 10  2  0
  7 13  1  0
  8  9  2  0
  8 52  1  0
  9 53  1  0
 10 54  1  0
 11 12  2  0
 11 68  1  0
 12 69  1  0
 13 52  2  0
 13 53  1  0
 14 34  1  0
 14 57  2  0
 14 70  1  0
 15 35  1  0
 15 58  2  0
 15 71  1  0
 16 36  1  0
 16 59  2  0
 16 72  1  0
 17 37  1  0
 17 60  2  0
 17 73  1  0
 18 38  1  0
 18 61  2  0
 18 74  1  0
 19 39  1  0
 19 62  2  0
 19 75  1  0
 20 40  1  0
 20 63  2  0
 20 76  1  0
 21 54  1  0
 21 55  1  0
 21 56  2  0
 22 55  1  0
 22 64  2  0
 22 77  1  0
 23 56  1  0
 23 65  2  0
 23 78  1  0
 24 26  1  0
 24 28  1  0
 24 70  1  0
 25 27  1  0
 25 29  1  0
 25 71  1  0
 26 30  1  0
 26 72  1  0
 27 31  1  0
 27 79  1  0
 28 33  1  0
 28 73  1  0
 29 32  1  0
 29 74  1  0
 30 48  1  0
 30 66  1  0
 31 49  1  0
 31 67  1  0
 32 67  1  0
 32 68  1  0
 33 66  1  0
 33 79  1  0
 41 50  1  0
 42 50  1  0
 43 50  1  0
 44 51  1  0
 45 51  1  0
 46 51  1  0
 47 69  1  0
 48 75  1  0
 49 76  1  0
 50 77  1  0
 51 78  1  0
  1 80  1  0
  2 81  1  0
  3 82  1  0
  4 83  1  0
  5 84  1  0
  6 85  1  0
 24 86  1  0
 25 87  1  0
 26 88  1  0
 27 89  1  0
 28 90  1  0
 29 91  1  0
 30 92  1  0
 31 93  1  0
 32 94  1  0
 33 95  1  0
 34 96  1  0
 34 97  1  0
 34 98  1  0
 35 99  1  0
 35100  1  0
 35101  1  0
 36102  1  0
 36103  1  0
 36104  1  0
 37105  1  0
 37106  1  0
 37107  1  0
 38108  1  0
 38109  1  0
 38110  1  0
 39111  1  0
 39112  1  0
 39113  1  0
 40114  1  0
 40115  1  0
 40116  1  0
 41117  1  0
 41118  1  0
 41119  1  0
 42120  1  0
 42121  1  0
 42122  1  0
 43123  1  0
 43124  1  0
 43125  1  0
 44126  1  0
 44127  1  0
 44128  1  0
 45129  1  0
 45130  1  0
 45131  1  0
 46132  1  0
 46133  1  0
 46134  1  0
 47135  1  0
 47136  1  0
 47137  1  0
 48138  1  0
 48139  1  0
 49140  1  0
 49141  1  0
 53142  1  0
 54143  1  0
 55144  1  0
 56145  1  0
M  CHG  1  56   1
M  END
> <Name>
BR010687

$$$$
BR010688
  SciTegic05062102053D

110113  0  0  1  0            999 V2000
    5.8070   -0.2788   -2.8714 C   0  0
   10.0364   -2.4311    0.8040 C   0  0
   10.8950   -3.4841    0.4711 C   0  0
    4.7082    0.5275   -3.1679 C   0  0
    5.3775    0.0037   -0.5107 C   0  0
    9.6907   -3.9075   -1.6021 C   0  0
    6.1417   -0.5408   -1.5428 C   0  0
    8.8186   -2.8528   -1.2835 C   0  0
    9.0115   -2.1473   -0.0991 C   0  0
   10.7271   -4.2104   -0.7101 C   0  0
    3.9440    1.0720   -2.1358 C   0  0
    4.2786    0.8101   -0.8072 C   0  0
    7.2780   -1.3751   -1.2364 C   0  0
    0.0390    2.6492   -0.5069 C   0  0
   -2.9787    1.7029   -3.7305 C   0  0
   -1.8995    1.6456   -6.8921 C   0  0
    3.4694    0.3873   -8.2330 C   0  0
   12.0007   -5.7059   -2.2996 C   0  0
   12.3710   -8.1722   -1.5934 C   0  0
   12.3601   -5.1040   -4.7654 C   0  0
    0.5043    1.9256   -2.8399 C   0  0  2  0  0  0
   -0.6292    1.4516   -3.7546 C   0  0  2  0  0  0
   -0.2255    1.5156   -5.2293 C   0  0  1  0  0  0
    1.1315    0.8416   -5.4476 C   0  0  1  0  0  0
    1.8329    1.2598   -3.2146 C   0  0  1  0  0  0
   -0.3040    2.1429    0.8548 C   0  0
   -4.0681    2.7018   -3.4826 C   0  0
   -2.9251    0.8282   -7.6174 C   0  0
    4.7885   -0.3232   -8.2010 C   0  0
   11.3934  -10.7057   -0.7219 C   0  0
   13.2236  -11.6869   -2.1349 C   0  0
   13.8023  -10.2087   -0.1886 C   0  0
   11.6484   -5.1937   -7.5224 C   0  0
   12.3511   -2.7832   -7.5906 C   0  0
   14.0308   -4.5598   -7.0156 C   0  0
    3.9378    2.6118    0.7072 C   0  0
    1.6243    0.9867   -6.8839 C   0  0
   12.7903  -10.4840   -1.2999 C   0  0
   12.5666   -4.1350   -6.9135 C   0  0
    7.7374   -2.3589   -1.9767 N   0  0
    8.0120   -1.2083   -0.0951 N   0  0
   11.6159   -5.2675   -1.0109 N   0  0
    0.1759    1.6558   -1.4553 N   0  0
   12.3400   -7.0609   -2.5138 N   0  0
   12.0003   -4.8227   -3.3999 N   0  3
    0.1695    3.8541   -0.6884 O   0  0
   -3.1765    0.5374   -4.0460 O   0  0
   -1.7046    2.8366   -7.0940 O   0  0
    3.0017    0.9192   -9.2308 O   0  0
   12.0742   -8.0282   -0.4141 O   0  0
   12.7303   -6.2004   -5.1636 O   0  0
    2.1110    1.4463   -4.6013 O   0  0
    2.8687    1.8615   -2.4389 O   0  0
    3.5401    1.3357    0.2098 O   0  0
   -1.7635    2.2962   -3.5494 O   0  0
   -1.2356    0.8610   -5.9922 O   0  0
    2.8832    0.3482   -6.9953 O   0  0
   12.7483   -9.3480   -2.1696 O   0  0
   12.2316   -3.9826   -5.5303 O   0  0
    6.3925   -0.6958   -3.6873 H   0  0
   10.1645   -1.8662    1.7203 H   0  0
   11.7060   -3.7364    1.1509 H   0  0
    4.4530    0.7276   -4.2049 H   0  0
    5.6304   -0.1953    0.5286 H   0  0
    9.5626   -4.4738   -2.5195 H   0  0
    0.6011    3.0167   -2.9084 H   0  0
   -0.9391    0.4325   -3.4891 H   0  0
   -0.1954    2.5664   -5.5448 H   0  0
    1.0698   -0.2315   -5.2233 H   0  0
    1.8172    0.1873   -2.9812 H   0  0
    0.5905    1.9252    1.4602 H   0  0
   -0.8820    2.8745    1.4421 H   0  0
   -0.9012    1.2173    0.8769 H   0  0
   -4.3554    2.6832   -2.4285 H   0  0
   -4.9273    2.4795   -4.1204 H   0  0
   -3.7037    3.7039   -3.7270 H   0  0
   -2.4827    0.3902   -8.5155 H   0  0
   -3.7829    1.4541   -7.8761 H   0  0
   -3.2691    0.0183   -6.9676 H   0  0
    5.5831    0.3813   -7.9431 H   0  0
    4.9840   -0.7865   -9.1714 H   0  0
    4.7588   -1.1089   -7.4404 H   0  0
   11.0787   -9.8444   -0.1218 H   0  0
   10.6518  -10.8696   -1.5106 H   0  0
   11.3811  -11.5716   -0.0500 H   0  0
   14.2255  -11.5322   -2.5515 H   0  0
   12.5528  -11.8308   -2.9895 H   0  0
   13.2329  -12.6076   -1.5426 H   0  0
   14.8045  -10.0496   -0.6029 H   0  0
   13.5269   -9.3264    0.3982 H   0  0
   13.8804  -11.0669    0.4887 H   0  0
   11.8000   -6.1655   -7.0391 H   0  0
   10.5935   -4.9174   -7.4244 H   0  0
   11.8706   -5.3393   -8.5857 H   0  0
   13.0079   -2.0205   -7.1569 H   0  0
   11.3250   -2.4296   -7.4385 H   0  0
   12.5439   -2.8352   -8.6671 H   0  0
   14.6896   -3.8005   -6.5789 H   0  0
   14.2116   -5.5102   -6.5032 H   0  0
   14.3335   -4.6661   -8.0636 H   0  0
    3.2664    2.9146    1.5144 H   0  0
    3.9058    3.3455   -0.1023 H   0  0
    4.9579    2.5412    1.0920 H   0  0
    1.7320    2.0419   -7.1356 H   0  0
    0.9194    0.5154   -7.5689 H   0  0
    7.8513   -0.5171    0.6259 H   0  0
   12.0080   -5.7947   -0.2214 H   0  0
    0.0402    0.6922   -1.1694 H   0  0
   12.6052   -7.2901   -3.4716 H   0  0
   11.6663   -3.8745   -3.2381 H   0  0
  1  4  2  0
  1  7  1  0
  2  3  2  0
  2  9  1  0
  3 10  1  0
  4 11  1  0
  5  7  2  0
  5 12  1  0
  6  8  1  0
  6 10  2  0
  7 13  1  0
  8  9  2  0
  8 40  1  0
  9 41  1  0
 10 42  1  0
 11 12  2  0
 11 53  1  0
 12 54  1  0
 13 40  2  0
 13 41  1  0
 14 26  1  0
 14 43  1  0
 14 46  2  0
 15 27  1  0
 15 47  2  0
 15 55  1  0
 16 28  1  0
 16 48  2  0
 16 56  1  0
 17 29  1  0
 17 49  2  0
 17 57  1  0
 18 42  1  0
 18 44  1  0
 18 45  2  0
 19 44  1  0
 19 50  2  0
 19 58  1  0
 20 45  1  0
 20 51  2  0
 20 59  1  0
 21 22  1  0
 21 25  1  0
 21 43  1  0
 22 23  1  0
 22 55  1  0
 23 24  1  0
 23 56  1  0
 24 37  1  0
 24 52  1  0
 25 52  1  0
 25 53  1  0
 30 38  1  0
 31 38  1  0
 32 38  1  0
 33 39  1  0
 34 39  1  0
 35 39  1  0
 36 54  1  0
 37 57  1  0
 38 58  1  0
 39 59  1  0
  1 60  1  0
  2 61  1  0
  3 62  1  0
  4 63  1  0
  5 64  1  0
  6 65  1  0
 21 66  1  0
 22 67  1  0
 23 68  1  0
 24 69  1  0
 25 70  1  0
 26 71  1  0
 26 72  1  0
 26 73  1  0
 27 74  1  0
 27 75  1  0
 27 76  1  0
 28 77  1  0
 28 78  1  0
 28 79  1  0
 29 80  1  0
 29 81  1  0
 29 82  1  0
 30 83  1  0
 30 84  1  0
 30 85  1  0
 31 86  1  0
 31 87  1  0
 31 88  1  0
 32 89  1  0
 32 90  1  0
 32 91  1  0
 33 92  1  0
 33 93  1  0
 33 94  1  0
 34 95  1  0
 34 96  1  0
 34 97  1  0
 35 98  1  0
 35 99  1  0
 35100  1  0
 36101  1  0
 36102  1  0
 36103  1  0
 37104  1  0
 37105  1  0
 41106  1  0
 42107  1  0
 43108  1  0
 44109  1  0
 45110  1  0
M  CHG  1  45   1
M  END
> <Name>
BR010688

$$$$
BR010689
  SciTegic05062102053D

 36 35  0  0  0  0            999 V2000
   -0.9891    0.6147    1.2771 C   0  0
    0.5969   -0.9424    1.6439 C   0  0
   -0.9857    0.8414   -0.9636 C   0  0
    2.8122   -1.9715    3.1405 C   0  0
    2.0152   -4.2387    2.4100 C   0  0
    2.7668   -2.5648    0.6950 C   0  0
   -0.3688   -0.1816   -3.5670 C   0  0
   -2.3545    1.1394   -4.3550 C   0  0
   -0.3838    2.3255   -3.3460 C   0  0
    2.0857   -2.7565    2.0492 C   0  0
   -1.2324    1.0549   -3.3225 C   0  0
   -0.7097   -0.6573    1.5869 N   0  5
   -1.7110    0.7282    0.1557 N   0  5
    1.5542   -0.1966    1.4511 O   0  0
    0.2367    0.8540   -1.0878 O   0  0
    0.7407   -2.2703    1.9564 O   0  0
   -1.8421    0.9372   -2.0308 O   0  0
   -0.7081    1.9160    2.3382 S   0  0
    2.8648   -0.9070    2.8853 H   0  0
    2.3134   -2.0724    4.1099 H   0  0
    3.8474   -2.3156    3.2463 H   0  0
    1.4947   -4.8058    1.6297 H   0  0
    1.4444   -4.3890    3.3335 H   0  0
    3.0126   -4.6696    2.5448 H   0  0
    2.2459   -3.1278   -0.0879 H   0  0
    2.7935   -1.5101    0.4026 H   0  0
    3.7942   -2.9458    0.7182 H   0  0
    0.4379   -0.2459   -2.8280 H   0  0
   -0.9594   -1.1023   -3.5181 H   0  0
    0.1151   -0.1327   -4.5492 H   0  0
   -2.9767    2.0253   -4.1833 H   0  0
   -3.0221    0.2737   -4.2776 H   0  0
   -1.9617    1.1842   -5.3759 H   0  0
   -1.0031    3.2126   -3.1706 H   0  0
    0.4040    2.2983   -2.5863 H   0  0
    0.0836    2.4638   -4.3277 H   0  0
  1 12  1  0
  1 13  1  0
  1 18  2  0
  2 12  1  0
  2 14  2  0
  2 16  1  0
  3 13  1  0
  3 15  2  0
  3 17  1  0
  4 10  1  0
  5 10  1  0
  6 10  1  0
  7 11  1  0
  8 11  1  0
  9 11  1  0
 10 16  1  0
 11 17  1  0
  4 19  1  0
  4 20  1  0
  4 21  1  0
  5 22  1  0
  5 23  1  0
  5 24  1  0
  6 25  1  0
  6 26  1  0
  6 27  1  0
  7 28  1  0
  7 29  1  0
  7 30  1  0
  8 31  1  0
  8 32  1  0
  8 33  1  0
  9 34  1  0
  9 35  1  0
  9 36  1  0
M  CHG  2  12  -1  13  -1
M  END
> <Name>
BR010689

$$$$
BR010690
  SciTegic05062102053D

 15 15  0  0  0  0            999 V2000
    1.8830   -1.0424   -0.1354 C   0  0
    0.7843   -0.5196    0.5399 C   0  0
    2.8804   -1.7065    0.5723 C   0  0
    0.7101   -0.6752    1.9167 C   0  0
    2.7532   -1.8320    1.9483 C   0  0
    1.5448   -1.4485    4.0249 C   0  0
    1.6847   -1.3190    2.5735 N   0  3
    4.0061   -2.6615    2.8068 Cl  0  0
    1.9617   -0.9323   -1.2129 H   0  0
    0.0001    0.0000   -0.0002 H   0  0
    3.7356   -2.1126    0.0405 H   0  0
   -0.1160   -0.2938    2.5046 H   0  0
    1.0067   -2.3740    4.2475 H   0  0
    2.5284   -1.4753    4.5024 H   0  0
    0.9876   -0.5939    4.4192 H   0  0
  1  2  1  0
  1  3  2  0
  2  4  2  0
  3  5  1  0
  4  7  1  0
  5  7  2  0
  5  8  1  0
  6  7  1  0
  1  9  1  0
  2 10  1  0
  3 11  1  0
  4 12  1  0
  6 13  1  0
  6 14  1  0
  6 15  1  0
M  CHG  1   7   1
M  END
> <Name>
BR010690

$$$$
BR010691
  SciTegic05062102053D

 79 82  0  0  1  0            999 V2000
    1.9314   -3.3465   -6.1461 C   0  0
    4.4861   -2.3478  -10.8190 C   0  0
    5.6526   -2.6044  -11.5471 C   0  0
    1.2117   -3.4030   -4.9526 C   0  0
    3.9924   -3.1848   -4.8957 C   0  0
    6.7341   -3.5973   -9.6048 C   0  0
    3.3218   -3.2375   -6.1176 C   0  0
    5.5704   -3.3469   -8.8582 C   0  0
    4.4852   -2.7340   -9.4783 C   0  0
    6.7577   -3.2180  -10.9528 C   0  0
    1.8823   -3.3503   -3.7306 C   0  0
    3.2726   -3.2412   -3.7022 C   0  0
    4.0660   -3.1795   -7.3521 C   0  0
   -2.9489   -2.3852    0.9259 C   0  0
   -1.9601    1.2972    0.6303 C   0  0
   -0.5781   -4.9802   -0.7549 C   0  0
    2.0851    2.3919   -3.8973 C   0  0
    9.2464   -3.4974  -11.2554 C   0  0
   -1.4240   -1.4908   -0.6420 C   0  0  1  0  0  0
   -0.7391   -0.1332   -0.8004 C   0  0  1  0  0  0
   -0.4804   -2.6337   -1.0165 C   0  0  2  0  0  0
   -0.0643   -0.0218   -2.1696 C   0  0  1  0  0  0
    0.2035   -2.3731   -2.3586 C   0  0  1  0  0  0
   -3.2456   -2.4561    2.3933 C   0  0
   -3.0176    2.3592    0.6347 C   0  0
   -1.4975   -6.1567   -0.8841 C   0  0
    2.6512    2.2726   -5.2799 C   0  0
    4.3558   -4.4309   -1.9508 C   0  0
    0.7314    1.2714   -2.3175 C   0  0
    5.2914   -3.6163   -7.5379 N   0  0
    3.5375   -2.6395   -8.4916 N   0  0
    9.5905   -2.7077  -10.1573 N   0  0
    7.9182   -3.4605  -11.7224 N   0  0
   10.2493   -4.2457  -11.8634 N   0  3
   -3.6287   -2.9235    0.0626 O   0  0
   -1.4018    0.8821    1.6368 O   0  0
    0.5888   -5.0588   -0.3953 O   0  0
    2.2827    3.3451   -3.1560 O   0  0
    0.8515   -1.1032   -2.3511 O   0  0
    1.1656   -3.4063   -2.5667 O   0  0
    3.9393   -3.1891   -2.5152 O   0  0
   -1.8241   -1.6404    0.7212 O   0  0
   -1.7290    0.8812   -0.6501 O   0  0
   -1.2427   -3.8373   -1.0959 O   0  0
    1.3285    1.2888   -3.6013 O   0  0
    1.3939   -3.3888   -7.0903 H   0  0
    3.6273   -1.8714  -11.2779 H   0  0
    5.6922   -2.3168  -12.5955 H   0  0
    0.1289   -3.4878   -4.9818 H   0  0
    5.0766   -3.1003   -4.8633 H   0  0
    7.5946   -4.0740   -9.1455 H   0  0
   -2.3429   -1.5299   -1.2405 H   0  0
   -0.0062   -0.0080    0.0071 H   0  0
    0.2643   -2.7781   -0.2236 H   0  0
   -0.8146   -0.0439   -2.9711 H   0  0
   -0.5186   -2.4258   -3.1832 H   0  0
   -2.7433   -3.3218    2.8318 H   0  0
   -4.3255   -2.5163    2.5509 H   0  0
   -2.8728   -1.5517    2.8827 H   0  0
   -2.5548    3.3438    0.5316 H   0  0
   -3.5980    2.3008    1.5589 H   0  0
   -3.6935    2.2014   -0.2108 H   0  0
   -2.0182   -6.3261    0.0616 H   0  0
   -0.9275   -7.0428   -1.1746 H   0  0
   -2.2413   -5.9522   -1.6598 H   0  0
    3.6230    1.7743   -5.2410 H   0  0
    2.7441    3.2643   -5.7296 H   0  0
    1.9763    1.6727   -5.8974 H   0  0
    4.8748   -4.2472   -1.0069 H   0  0
    5.0199   -4.9454   -2.6499 H   0  0
    3.4750   -5.0502   -1.7652 H   0  0
    1.5109    1.3176   -1.5570 H   0  0
    0.0680    2.1303   -2.2170 H   0  0
    2.6132   -2.2412   -8.5940 H   0  0
    8.9028   -2.1162   -9.6971 H   0  0
   10.5376   -2.7048   -9.7862 H   0  0
    7.7926   -3.6674  -12.7214 H   0  0
   11.2112   -4.1840  -11.5373 H   0  0
   10.0853   -4.8111  -12.6906 H   0  0
  1  4  2  0
  1  7  1  0
  2  3  2  0
  2  9  1  0
  3 10  1  0
  4 11  1  0
  5  7  2  0
  5 12  1  0
  6  8  1  0
  6 10  2  0
  7 13  1  0
  8  9  2  0
  8 30  1  0
  9 31  1  0
 10 33  1  0
 11 12  2  0
 11 40  1  0
 12 41  1  0
 13 30  2  0
 13 31  1  0
 14 24  1  0
 14 35  2  0
 14 42  1  0
 15 25  1  0
 15 36  2  0
 15 43  1  0
 16 26  1  0
 16 37  2  0
 16 44  1  0
 17 27  1  0
 17 38  2  0
 17 45  1  0
 18 32  1  0
 18 33  1  0
 18 34  2  0
 19 20  1  0
 19 21  1  0
 19 42  1  0
 20 22  1  0
 20 43  1  0
 21 23  1  0
 21 44  1  0
 22 29  1  0
 22 39  1  0
 23 39  1  0
 23 40  1  0
 28 41  1  0
 29 45  1  0
  1 46  1  0
  2 47  1  0
  3 48  1  0
  4 49  1  0
  5 50  1  0
  6 51  1  0
 19 52  1  0
 20 53  1  0
 21 54  1  0
 22 55  1  0
 23 56  1  0
 24 57  1  0
 24 58  1  0
 24 59  1  0
 25 60  1  0
 25 61  1  0
 25 62  1  0
 26 63  1  0
 26 64  1  0
 26 65  1  0
 27 66  1  0
 27 67  1  0
 27 68  1  0
 28 69  1  0
 28 70  1  0
 28 71  1  0
 29 72  1  0
 29 73  1  0
 31 74  1  0
 32 75  1  0
 32 76  1  0
 33 77  1  0
 34 78  1  0
 34 79  1  0
M  CHG  1  34   1
M  END
> <Name>
BR010691

$$$$
BR010692
  SciTegic05062102053D

 79 82  0  0  1  0            999 V2000
    4.7840   -4.1604   -4.1709 C   0  0
    9.6908   -6.4445   -4.4253 C   0  0
   10.6963   -6.8691   -5.3002 C   0  0
    3.5944   -3.4710   -3.9360 C   0  0
    5.3207   -2.6256   -5.9578 C   0  0
    9.6266   -5.7591   -7.1848 C   0  0
    5.6472   -3.7377   -5.1818 C   0  0
    8.6080   -5.3240   -6.3202 C   0  0
    8.6650   -5.6743   -4.9741 C   0  0
   10.6667   -6.5336   -6.6558 C   0  0
    3.2680   -2.3589   -4.7121 C   0  0
    4.1311   -1.9361   -5.7230 C   0  0
    6.8777   -4.4506   -5.4243 C   0  0
   -0.1514    2.7277   -1.1123 C   0  0
   -2.1676   -0.5982   -0.6712 C   0  0
    1.0128    1.9772   -4.7638 C   0  0
   -0.0513   -3.2307    2.0855 C   0  0
   11.5954   -7.2726   -8.8816 C   0  0
    0.7233    0.6893   -1.9268 C   0  0  1  0  0  0
    0.1626   -0.3970   -1.0083 C   0  0  2  0  0  0
    1.0679    0.1207   -3.3030 C   0  0  2  0  0  0
    1.1199   -1.5934   -0.9760 C   0  0  1  0  0  0
    1.9375   -1.1315   -3.1696 C   0  0  1  0  0  0
   -1.2083    3.7587   -1.3695 C   0  0
   -3.4304   -1.0693   -1.3265 C   0  0
    1.8918    2.9615   -5.4741 C   0  0
   -0.1861   -2.6172    3.4462 C   0  0
    3.0771   -1.0891   -7.6794 C   0  0
    0.5950   -2.7518   -0.1363 C   0  0
    7.4910   -4.5639   -6.5810 N   0  0
    7.5460   -5.1023   -4.4254 N   0  0
   10.3740   -7.7351   -9.3740 N   0  0
   11.7017   -6.9819   -7.5077 N   0  0
   12.6618   -7.1690   -9.7690 N   0  3
    0.6512    2.7844   -0.1904 O   0  0
   -2.1187   -0.1064    0.4481 O   0  0
   -0.2082    1.9681   -4.8419 O   0  0
   -0.3267   -4.3949    1.8285 O   0  0
    1.3267   -2.0883   -2.3049 O   0  0
    2.0984   -1.6910   -4.4725 O   0  0
    3.8238   -0.8514   -6.4877 O   0  0
   -0.2303    1.7405   -2.0532 O   0  0
   -1.1121   -0.8043   -1.5106 O   0  0
    1.7818    1.1166   -4.0347 O   0  0
    0.4192   -2.3021    1.1952 O   0  0
    5.0240   -5.0253   -3.5571 H   0  0
    9.7114   -6.7039   -3.3729 H   0  0
   11.5128   -7.4726   -4.9098 H   0  0
    2.9265   -3.8056   -3.1471 H   0  0
    5.9878   -2.2880   -6.7483 H   0  0
    9.6063   -5.4998   -8.2389 H   0  0
    1.6205    1.1273   -1.4713 H   0  0
   -0.0004    0.0130   -0.0050 H   0  0
    0.1516   -0.0940   -3.8664 H   0  0
    2.0891   -1.2829   -0.5645 H   0  0
    2.9371   -0.8744   -2.7968 H   0  0
   -0.8169    4.5334   -2.0335 H   0  0
   -1.5403    4.1936   -0.4233 H   0  0
   -2.0667    3.2849   -1.8544 H   0  0
   -3.8817   -0.2512   -1.8932 H   0  0
   -4.1244   -1.4424   -0.5691 H   0  0
   -3.1981   -1.8852   -2.0171 H   0  0
    2.0530    3.8384   -4.8422 H   0  0
    1.4342    3.2496   -6.4239 H   0  0
    2.8609    2.4984   -5.6816 H   0  0
    0.7455   -2.7423    4.0034 H   0  0
   -1.0200   -3.0794    3.9806 H   0  0
   -0.3897   -1.5473    3.3430 H   0  0
    2.9002   -0.1417   -8.1944 H   0  0
    2.1248   -1.5615   -7.4255 H   0  0
    3.6493   -1.7540   -8.3307 H   0  0
    1.3108   -3.5747   -0.1460 H   0  0
   -0.3628   -3.0945   -0.5293 H   0  0
    7.2693   -5.1553   -3.4537 H   0  0
    9.5721   -7.8610   -8.7610 H   0  0
   10.2526   -7.9559  -10.3594 H   0  0
   12.6426   -7.0767   -7.1050 H   0  0
   12.5591   -7.4612  -10.7383 H   0  0
   13.5905   -6.8805   -9.4773 H   0  0
  1  4  2  0
  1  7  1  0
  2  3  2  0
  2  9  1  0
  3 10  1  0
  4 11  1  0
  5  7  2  0
  5 12  1  0
  6  8  1  0
  6 10  2  0
  7 13  1  0
  8  9  2  0
  8 30  1  0
  9 31  1  0
 10 33  1  0
 11 12  2  0
 11 40  1  0
 12 41  1  0
 13 30  2  0
 13 31  1  0
 14 24  1  0
 14 35  2  0
 14 42  1  0
 15 25  1  0
 15 36  2  0
 15 43  1  0
 16 26  1  0
 16 37  2  0
 16 44  1  0
 17 27  1  0
 17 38  2  0
 17 45  1  0
 18 32  1  0
 18 33  1  0
 18 34  2  0
 19 20  1  0
 19 21  1  0
 19 42  1  0
 20 22  1  0
 20 43  1  0
 21 23  1  0
 21 44  1  0
 22 29  1  0
 22 39  1  0
 23 39  1  0
 23 40  1  0
 28 41  1  0
 29 45  1  0
  1 46  1  0
  2 47  1  0
  3 48  1  0
  4 49  1  0
  5 50  1  0
  6 51  1  0
 19 52  1  0
 20 53  1  0
 21 54  1  0
 22 55  1  0
 23 56  1  0
 24 57  1  0
 24 58  1  0
 24 59  1  0
 25 60  1  0
 25 61  1  0
 25 62  1  0
 26 63  1  0
 26 64  1  0
 26 65  1  0
 27 66  1  0
 27 67  1  0
 27 68  1  0
 28 69  1  0
 28 70  1  0
 28 71  1  0
 29 72  1  0
 29 73  1  0
 31 74  1  0
 32 75  1  0
 32 76  1  0
 33 77  1  0
 34 78  1  0
 34 79  1  0
M  CHG  1  34   1
M  END
> <Name>
BR010692

$$$$
BR010693
  SciTegic05062102053D

115119  0  0  1  0            999 V2000
   -7.3860   -1.9841   -3.0087 C   0  0
   -8.0990   -2.3339   -8.3687 C   0  0
   -8.9568   -2.8081   -9.3666 C   0  0
   -6.9993   -1.9292   -1.6697 C   0  0
   -8.2329   -4.2217   -2.6723 C   0  0
  -10.2532   -4.0839   -7.7480 C   0  0
   -8.0029   -3.1303   -3.5100 C   0  0
   -9.4010   -3.6174   -6.7329 C   0  0
   -8.3546   -2.7617   -7.0655 C   0  0
  -10.0154   -3.6676   -9.0640 C   0  0
   -7.2293   -3.0205   -0.8320 C   0  0
   -7.8461   -4.1668   -1.3333 C   0  0
   -8.4031   -3.1868   -4.8949 C   0  0
    1.5287   -4.4748    0.1765 C   0  0
   -3.6683   -1.7447    4.7937 C   0  0
    4.0228   -3.1337    3.5538 C   0  0
    0.5818   -7.1940    3.7328 C   0  0
   -7.2004   -1.7119    3.1494 C   0  0
    0.0684    0.7119    5.7610 C   0  0
   -2.4897   -7.1335   -0.4628 C   0  0
  -11.5461   -5.3542  -10.1482 C   0  0
    1.3092   -4.3723    2.5269 C   0  0  1  0  0  0
   -3.7700   -2.6282    2.6044 C   0  0  1  0  0  0
    1.6683   -3.3308    3.5917 C   0  0  2  0  0  0
   -2.9659   -3.6865    1.8490 C   0  0  1  0  0  0
   -0.0071   -5.0674    2.8873 C   0  0  2  0  0  0
   -5.2538   -2.6983    2.2430 C   0  0  2  0  0  0
    0.4940   -2.3774    3.8356 C   0  0  2  0  0  0
   -3.2923   -3.6521    0.3541 C   0  0  1  0  0  0
   -5.4554   -2.7484    0.7286 C   0  0  1  0  0  0
   -1.1114   -4.0627    3.2424 C   0  0  1  0  0  0
    1.3401   -3.6712   -1.0744 C   0  0
   -3.4952   -2.1358    6.2300 C   0  0
    5.1381   -2.2598    3.0653 C   0  0
    0.7617   -7.9620    5.0071 C   0  0
   -7.7452   -0.4215    3.6825 C   0  0
   -0.9088    1.8166    5.4950 C   0  0
   -3.0247   -8.3656    0.2018 C   0  0
   -9.3226   -5.2727    0.1675 C   0  0
    0.7953   -1.3882    4.9578 C   0  0
   -2.5996   -4.7735   -0.4140 C   0  0
   -9.4153   -3.8700   -5.3803 N   0  0
   -7.7333   -2.5026   -5.8707 N   0  0
  -10.9841   -6.4579   -9.5047 N   0  0
  -10.8604   -4.1249  -10.1006 N   0  0
  -12.7350   -5.5392  -10.8467 N   0  3
    1.9370   -5.6281    0.1949 O   0  0
   -3.8298   -0.5935    4.4117 O   0  0
    4.1895   -4.1697    4.1831 O   0  0
    0.7573   -7.6660    2.6177 O   0  0
   -7.8451   -2.7491    3.0749 O   0  0
    0.8686    0.7131    6.6867 O   0  0
   -1.6918   -7.1468   -1.3904 O   0  0
   -0.6673   -3.1186    4.2217 O   0  0
   -4.6983   -3.8134    0.1585 O   0  0
   -6.8453   -2.9550    0.4794 O   0  0
   -8.0765   -5.2392   -0.5253 O   0  0
    1.1778   -3.7250    1.2620 O   0  0
   -3.6172   -2.8579    4.0061 O   0  0
    2.8191   -2.5974    3.1897 O   0  0
    0.2000   -5.9138    4.0163 O   0  0
   -5.8995   -1.5409    2.7718 O   0  0
   -0.0725   -0.2776    4.8239 O   0  0
   -3.0232   -6.0144    0.1203 O   0  0
   -1.5862   -3.4252    2.0608 O   0  0
   -7.1997   -1.1250   -3.6486 H   0  0
   -7.2765   -1.6671   -8.6011 H   0  0
   -8.7891   -2.4977  -10.3956 H   0  0
   -6.5192   -1.0333   -1.2856 H   0  0
   -8.7138   -5.1199   -3.0541 H   0  0
  -11.0768   -4.7521   -7.5158 H   0  0
    2.1293   -5.0946    2.4405 H   0  0
   -3.3664   -1.6268    2.4089 H   0  0
    1.9107   -3.8548    4.5251 H   0  0
   -3.1888   -4.6736    2.2744 H   0  0
   -0.3397   -5.6909    2.0493 H   0  0
   -5.7146   -3.5701    2.7245 H   0  0
    0.2745   -1.7930    2.9346 H   0  0
   -2.9718   -2.6993   -0.0877 H   0  0
   -5.1769   -1.7938    0.2643 H   0  0
   -1.9548   -4.6013    3.6903 H   0  0
    0.3274   -3.8154   -1.4588 H   0  0
    2.0816   -3.9672   -1.8208 H   0  0
    1.4792   -2.6100   -0.8481 H   0  0
   -4.4700   -2.3449    6.6775 H   0  0
   -2.9851   -1.3364    6.7733 H   0  0
   -2.8836   -3.0409    6.2882 H   0  0
    5.4437   -2.5735    2.0641 H   0  0
    5.9807   -2.3111    3.7594 H   0  0
    4.7914   -1.2235    3.0153 H   0  0
    1.7926   -7.8649    5.3562 H   0  0
    0.5063   -9.0124    4.8463 H   0  0
    0.0946   -7.5554    5.7728 H   0  0
   -7.5710   -0.3622    4.7597 H   0  0
   -8.8128   -0.3496    3.4600 H   0  0
   -7.2324    0.4156    3.1998 H   0  0
   -0.4585    2.5580    4.8303 H   0  0
   -1.2125    2.2782    6.4379 H   0  0
   -1.7973    1.4052    5.0073 H   0  0
   -2.3778   -8.6476    1.0362 H   0  0
   -3.0932   -9.1790   -0.5249 H   0  0
   -4.0266   -8.1618    0.5908 H   0  0
   -9.3782   -6.1791    0.7754 H   0  0
  -10.1427   -5.2547   -0.5547 H   0  0
   -9.3921   -4.3966    0.8166 H   0  0
    1.8286   -1.0491    4.8866 H   0  0
    0.6287   -1.8615    5.9252 H   0  0
   -1.5185   -4.6853   -0.3067 H   0  0
   -2.8698   -4.7243   -1.4689 H   0  0
   -6.9243   -1.9093   -5.7400 H   0  0
  -10.0992   -6.3846   -9.0084 H   0  0
  -11.4458   -7.3642   -9.5126 H   0  0
  -11.0293   -3.4911  -10.8920 H   0  0
  -13.1564   -6.4628  -10.9161 H   0  0
  -13.1818   -4.7950  -11.3734 H   0  0
  1  4  2  0
  1  7  1  0
  2  3  2  0
  2  9  1  0
  3 10  1  0
  4 11  1  0
  5  7  2  0
  5 12  1  0
  6  8  1  0
  6 10  2  0
  7 13  1  0
  8  9  2  0
  8 42  1  0
  9 43  1  0
 10 45  1  0
 11 12  2  0
 11 56  1  0
 12 57  1  0
 13 42  2  0
 13 43  1  0
 14 32  1  0
 14 47  2  0
 14 58  1  0
 15 33  1  0
 15 48  2  0
 15 59  1  0
 16 34  1  0
 16 49  2  0
 16 60  1  0
 17 35  1  0
 17 50  2  0
 17 61  1  0
 18 36  1  0
 18 51  2  0
 18 62  1  0
 19 37  1  0
 19 52  2  0
 19 63  1  0
 20 38  1  0
 20 53  2  0
 20 64  1  0
 21 44  1  0
 21 45  1  0
 21 46  2  0
 22 24  1  0
 22 26  1  0
 22 58  1  0
 23 25  1  0
 23 27  1  0
 23 59  1  0
 24 28  1  0
 24 60  1  0
 25 29  1  0
 25 65  1  0
 26 31  1  0
 26 61  1  0
 27 30  1  0
 27 62  1  0
 28 40  1  0
 28 54  1  0
 29 41  1  0
 29 55  1  0
 30 55  1  0
 30 56  1  0
 31 54  1  0
 31 65  1  0
 39 57  1  0
 40 63  1  0
 41 64  1  0
  1 66  1  0
  2 67  1  0
  3 68  1  0
  4 69  1  0
  5 70  1  0
  6 71  1  0
 22 72  1  0
 23 73  1  0
 24 74  1  0
 25 75  1  0
 26 76  1  0
 27 77  1  0
 28 78  1  0
 29 79  1  0
 30 80  1  0
 31 81  1  0
 32 82  1  0
 32 83  1  0
 32 84  1  0
 33 85  1  0
 33 86  1  0
 33 87  1  0
 34 88  1  0
 34 89  1  0
 34 90  1  0
 35 91  1  0
 35 92  1  0
 35 93  1  0
 36 94  1  0
 36 95  1  0
 36 96  1  0
 37 97  1  0
 37 98  1  0
 37 99  1  0
 38100  1  0
 38101  1  0
 38102  1  0
 39103  1  0
 39104  1  0
 39105  1  0
 40106  1  0
 40107  1  0
 41108  1  0
 41109  1  0
 43110  1  0
 44111  1  0
 44112  1  0
 45113  1  0
 46114  1  0
 46115  1  0
M  CHG  1  46   1
M  END
> <Name>
BR010693

$$$$
BR010694
  SciTegic05062102053D

 80 83  0  0  1  0            999 V2000
    2.8938    1.2233   -6.0436 C   0  0
    3.8716   -1.1486  -10.8161 C   0  0
    4.8827   -1.5134  -11.7112 C   0  0
    2.4953    1.6850   -4.7892 C   0  0
    4.8412    0.1975   -5.0474 C   0  0
    6.6134   -1.0195  -10.0716 C   0  0
    4.0668    0.4795   -6.1727 C   0  0
    5.6108   -0.6490   -9.1596 C   0  0
    4.2769   -0.7222   -9.5510 C   0  0
    6.2299   -1.4508  -11.3477 C   0  0
    3.2697    1.4030   -3.6639 C   0  0
    4.4427    0.6593   -3.7929 C   0  0
    4.4786    0.0017   -7.4701 C   0  0
    3.6958    0.7072    0.7773 C   0  0
   -0.5547    0.5239    2.2914 C   0  0
   -2.8559    2.3188    0.6646 C   0  0
   -2.3582    3.5959   -4.8424 C   0  0
    8.5341   -1.3232  -12.3662 C   0  0
    1.6326    1.3683   -0.4429 C   0  0  2  0  0  0
    0.2477    1.0609    0.1346 C   0  0  2  0  0  0
   -0.8328    1.9416   -0.4968 C   0  0  1  0  0  0
   -0.7278    1.9143   -2.0238 C   0  0  1  0  0  0
    1.5960    1.4133   -1.9744 C   0  0  1  0  0  0
    4.5495   -0.4645    1.1331 C   0  0
   -0.4179    0.8876    3.7388 C   0  0
   -4.1568    1.6725    1.0336 C   0  0
   -2.0667    3.4075   -6.3003 C   0  0
    6.2300    1.3133   -2.3670 C   0  0
   -1.7127    2.8712   -2.6878 C   0  0
    5.7164   -0.1975   -7.8640 N   0  0
    3.5752   -0.3002   -8.4509 N   0  0
    8.7712   -0.0082  -11.9630 N   0  0
    7.2221   -1.8282  -12.2808 N   0  0
    2.5937    0.3847    0.0115 N   0  0
    9.6017   -2.0532  -12.8788 N   0  3
    4.0103    1.8250    1.1689 O   0  0
   -1.3060   -0.3458    1.8716 O   0  0
   -2.5388    3.4549    0.9897 O   0  0
   -3.2063    4.3627   -4.4067 O   0  0
    0.5845    2.3138   -2.4232 O   0  0
    2.8687    1.8615   -2.4389 O   0  0
    5.2076    0.3770   -2.7015 O   0  0
    0.2770    1.3041    1.5425 O   0  0
   -2.1032    1.4519   -0.0757 O   0  0
   -1.5421    2.7917   -4.0912 O   0  0
    2.2791    1.4515   -6.9110 H   0  0
    2.8254   -1.1960  -11.0961 H   0  0
    4.6063   -1.8503  -12.7080 H   0  0
    1.5806    2.2639   -4.6957 H   0  0
    5.7574   -0.3823   -5.1379 H   0  0
    7.6614   -0.9718   -9.7918 H   0  0
    1.9910    2.3282   -0.0497 H   0  0
   -0.0001    0.0000    0.0001 H   0  0
   -0.7252    2.9653   -0.1157 H   0  0
   -0.9332    0.9060   -2.4066 H   0  0
    1.4162    0.4154   -2.3950 H   0  0
    5.3373   -0.6531    0.3861 H   0  0
    5.0814   -0.3228    2.0876 H   0  0
    4.0152   -1.4222    1.2387 H   0  0
    0.3644    0.2808    4.2014 H   0  0
   -1.3726    0.7409    4.2500 H   0  0
   -0.1370    1.9415    3.8229 H   0  0
   -4.9045    1.8779    0.2636 H   0  0
   -4.4924    2.0429    2.0055 H   0  0
   -4.0168    0.5899    1.1037 H   0  0
   -1.2937    4.1116   -6.6180 H   0  0
   -2.9806    3.5496   -6.8827 H   0  0
   -1.7020    2.3900   -6.4687 H   0  0
    6.7644    0.9686   -1.4783 H   0  0
    5.7816    2.2921   -2.1788 H   0  0
    6.9293    1.3899   -3.2030 H   0  0
   -1.5191    3.8923   -2.3588 H   0  0
   -2.7346    2.5902   -2.4327 H   0  0
    2.5685   -0.2280   -8.3821 H   0  0
    8.0187    0.5795  -11.6123 H   0  0
    9.7034    0.3964  -12.0064 H   0  0
    6.9880   -2.5721  -12.9505 H   0  0
    2.4503   -0.5860   -0.2448 H   0  0
   10.5168   -1.6227  -12.9911 H   0  0
    9.4986   -3.0001  -13.2305 H   0  0
  1  4  2  0
  1  7  1  0
  2  3  2  0
  2  9  1  0
  3 10  1  0
  4 11  1  0
  5  7  2  0
  5 12  1  0
  6  8  1  0
  6 10  2  0
  7 13  1  0
  8  9  2  0
  8 30  1  0
  9 31  1  0
 10 33  1  0
 11 12  2  0
 11 41  1  0
 12 42  1  0
 13 30  2  0
 13 31  1  0
 14 24  1  0
 14 34  1  0
 14 36  2  0
 15 25  1  0
 15 37  2  0
 15 43  1  0
 16 26  1  0
 16 38  2  0
 16 44  1  0
 17 27  1  0
 17 39  2  0
 17 45  1  0
 18 32  1  0
 18 33  1  0
 18 35  2  0
 19 20  1  0
 19 23  1  0
 19 34  1  0
 20 21  1  0
 20 43  1  0
 21 22  1  0
 21 44  1  0
 22 29  1  0
 22 40  1  0
 23 40  1  0
 23 41  1  0
 28 42  1  0
 29 45  1  0
  1 46  1  0
  2 47  1  0
  3 48  1  0
  4 49  1  0
  5 50  1  0
  6 51  1  0
 19 52  1  0
 20 53  1  0
 21 54  1  0
 22 55  1  0
 23 56  1  0
 24 57  1  0
 24 58  1  0
 24 59  1  0
 25 60  1  0
 25 61  1  0
 25 62  1  0
 26 63  1  0
 26 64  1  0
 26 65  1  0
 27 66  1  0
 27 67  1  0
 27 68  1  0
 28 69  1  0
 28 70  1  0
 28 71  1  0
 29 72  1  0
 29 73  1  0
 31 74  1  0
 32 75  1  0
 32 76  1  0
 33 77  1  0
 34 78  1  0
 35 79  1  0
 35 80  1  0
M  CHG  1  35   1
M  END
> <Name>
BR010694

$$$$
BR010695
  SciTegic05062102053D

 59 62  0  0  1  0            999 V2000
    2.0032   -6.5057   -0.8077 C   0  0
    3.4361   -9.9207    3.1475 C   0  0
    3.0431  -10.4511    4.3808 C   0  0
    1.8381   -5.5754   -1.8339 C   0  0
    1.1376   -4.9056    0.7821 C   0  0
    1.2458   -8.8223    4.5914 C   0  0
    1.6529   -6.1708    0.5003 C   0  0
    1.6270   -8.2766    3.3540 C   0  0
    2.7028   -8.8344    2.6690 C   0  0
    1.9677   -9.9133    5.0916 C   0  0
    1.3228   -4.3103   -1.5521 C   0  0
    0.9725   -3.9753   -0.2440 C   0  0
    1.8234   -7.1331    1.5614 C   0  0
    1.0131   -9.8065    7.4240 C   0  0
    3.1663   -1.4657   -5.0789 C   0  0  1  0  0  0
    4.2220   -0.9917   -4.0799 C   0  0  1  0  0  0
    1.9413   -2.0335   -4.3620 C   0  0  2  0  0  0
    4.5014   -2.0715   -3.0318 C   0  0  1  0  0  0
    2.3450   -3.0333   -3.2784 C   0  0  1  0  0  0
   -0.9485   -2.5909   -0.0227 C   0  0
    5.4607   -1.5895   -1.9479 C   0  0
    1.0934   -7.2212    2.6506 N   0  0
    2.8057   -8.0833    1.5263 N   0  0
    1.3031   -8.4541    7.6109 N   0  0
    1.6014  -10.4777    6.3345 N   0  0
    0.1930  -10.4348    8.3557 N   0  3
    3.2855   -2.4463   -2.3821 O   0  0
    2.7670   -0.3516   -5.8792 O   0  0
    5.4097   -0.6837   -4.8050 O   0  0
    1.1175   -2.6845   -5.3282 O   0  0
    5.6552   -2.6399   -1.0186 O   0  0
    1.1656   -3.4063   -2.5667 O   0  0
    0.4680   -2.7431    0.0441 O   0  0
    2.4060   -7.4876   -1.0439 H   0  0
    4.2706  -10.3362    2.5943 H   0  0
    3.5912  -11.2981    4.7877 H   0  0
    2.1130   -5.8427   -2.8505 H   0  0
    0.8610   -4.6353    1.7991 H   0  0
    0.4104   -8.4063    5.1461 H   0  0
    3.5938   -2.2047   -5.7682 H   0  0
    3.8713   -0.0671   -3.6034 H   0  0
    1.3473   -1.2163   -3.9335 H   0  0
    4.9490   -2.9571   -3.5019 H   0  0
    2.7627   -3.9456   -3.7229 H   0  0
   -1.2175   -1.5622    0.2294 H   0  0
   -1.4237   -3.2846    0.6755 H   0  0
   -1.2824   -2.8139   -1.0388 H   0  0
    5.0373   -0.7269   -1.4332 H   0  0
    6.4187   -1.3192   -2.3920 H   0  0
    3.4882   -8.2138    0.7909 H   0  0
    1.9239   -7.9557    6.9778 H   0  0
    0.8991   -7.9303    8.3836 H   0  0
    1.7405  -11.4886    6.4581 H   0  0
   -0.1496   -9.9282    9.1689 H   0  0
   -0.0290  -11.4245    8.3101 H   0  0
    2.4057    0.3076   -5.2681 H   0  0
    5.6816   -1.5014   -5.2497 H   0  0
    1.6573   -3.3880   -5.7198 H   0  0
    6.2681   -2.3104   -0.3394 H   0  0
  1  4  2  0
  1  7  1  0
  2  3  2  0
  2  9  1  0
  3 10  1  0
  4 11  1  0
  5  7  2  0
  5 12  1  0
  6  8  1  0
  6 10  2  0
  7 13  1  0
  8  9  2  0
  8 22  1  0
  9 23  1  0
 10 25  1  0
 11 12  2  0
 11 32  1  0
 12 33  1  0
 13 22  2  0
 13 23  1  0
 14 24  1  0
 14 25  1  0
 14 26  2  0
 15 16  1  0
 15 17  1  0
 15 28  1  0
 16 18  1  0
 16 29  1  0
 17 19  1  0
 17 30  1  0
 18 21  1  0
 18 27  1  0
 19 27  1  0
 19 32  1  0
 20 33  1  0
 21 31  1  0
  1 34  1  0
  2 35  1  0
  3 36  1  0
  4 37  1  0
  5 38  1  0
  6 39  1  0
 15 40  1  0
 16 41  1  0
 17 42  1  0
 18 43  1  0
 19 44  1  0
 20 45  1  0
 20 46  1  0
 20 47  1  0
 21 48  1  0
 21 49  1  0
 23 50  1  0
 24 51  1  0
 24 52  1  0
 25 53  1  0
 26 54  1  0
 26 55  1  0
 28 56  1  0
 29 57  1  0
 30 58  1  0
 31 59  1  0
M  CHG  1  26   1
M  END
> <Name>
BR010695

$$$$
BR010696
  SciTegic05062102053D

 59 62  0  0  1  0            999 V2000
    4.4913   -3.9493   -6.0773 C   0  0
    8.9301   -6.9367   -6.9332 C   0  0
    9.6598   -8.0361   -6.4691 C   0  0
    3.4689   -3.0157   -5.9082 C   0  0
    4.7805   -4.0666   -3.6816 C   0  0
    8.3245   -8.1572   -4.4368 C   0  0
    5.1471   -4.4749   -4.9640 C   0  0
    7.5811   -7.0533   -4.8874 C   0  0
    7.8995   -6.4758   -6.1134 C   0  0
    9.3641   -8.6371   -5.2434 C   0  0
    3.1024   -2.6074   -4.6258 C   0  0
    3.7581   -3.1329   -3.5124 C   0  0
    6.2042   -5.4408   -5.1391 C   0  0
   10.4030  -10.1077   -3.4767 C   0  0
    1.2643    1.8685   -5.2922 C   0  0  1  0  0  0
    2.5826    2.4439   -4.7736 C   0  0  2  0  0  0
    1.0591    0.4361   -4.8001 C   0  0  2  0  0  0
    3.7331    1.4891   -5.1107 C   0  0  1  0  0  0
    2.2977   -0.4168   -5.0835 C   0  0  1  0  0  0
    2.3927   -3.4988   -1.5999 C   0  0
    5.0751    1.9586   -4.5618 C   0  0
    6.5256   -6.3971   -4.2970 N   0  0
    7.0029   -5.4470   -6.2486 N   0  0
   10.4866   -9.0997   -2.5150 N   0  0
   10.1247   -9.7466   -4.8092 N   0  0
   10.6481  -11.4170   -3.0755 N   0  3
    3.4722    0.1953   -4.5524 O   0  0
    0.1860    2.6955   -4.8634 O   0  0
    2.4819    2.6073   -3.3572 O   0  0
   -0.0636   -0.1179   -5.4853 O   0  0
    6.1093    1.3032   -5.2739 O   0  0
    2.0984   -1.6910   -4.4725 O   0  0
    3.4093   -2.7425   -2.2547 O   0  0
    4.7651   -4.2573   -7.0835 H   0  0
    9.1580   -6.4684   -7.8840 H   0  0
   10.4722   -8.4240   -7.0798 H   0  0
    2.9623   -2.6102   -6.7796 H   0  0
    5.2858   -4.4712   -2.8070 H   0  0
    8.0969   -8.6263   -3.4845 H   0  0
    1.2624    1.8875   -6.3894 H   0  0
    2.7481    3.4384   -5.2036 H   0  0
    0.8142    0.4323   -3.7309 H   0  0
    3.8246    1.3873   -6.1998 H   0  0
    2.4176   -0.5845   -6.1613 H   0  0
    2.2109   -3.0825   -0.6061 H   0  0
    2.7092   -4.5416   -1.5175 H   0  0
    1.4741   -3.4443   -2.1890 H   0  0
    5.1537    1.7088   -3.5031 H   0  0
    5.1760    3.0365   -4.6926 H   0  0
    6.9462   -4.8097   -7.0323 H   0  0
   10.3493   -8.1226   -2.7621 H   0  0
   10.6841   -9.3157   -1.5409 H   0  0
   10.4896  -10.3844   -5.5279 H   0  0
   10.9190  -11.6226   -2.1164 H   0  0
   10.6467  -12.1978   -3.7246 H   0  0
    0.3492    3.5767   -5.2340 H   0  0
    3.3302    2.9718   -3.0645 H   0  0
    0.1528   -0.0947   -6.4297 H   0  0
    6.9524    1.6184   -4.9063 H   0  0
  1  4  2  0
  1  7  1  0
  2  3  2  0
  2  9  1  0
  3 10  1  0
  4 11  1  0
  5  7  2  0
  5 12  1  0
  6  8  1  0
  6 10  2  0
  7 13  1  0
  8  9  2  0
  8 22  1  0
  9 23  1  0
 10 25  1  0
 11 12  2  0
 11 32  1  0
 12 33  1  0
 13 22  2  0
 13 23  1  0
 14 24  1  0
 14 25  1  0
 14 26  2  0
 15 16  1  0
 15 17  1  0
 15 28  1  0
 16 18  1  0
 16 29  1  0
 17 19  1  0
 17 30  1  0
 18 21  1  0
 18 27  1  0
 19 27  1  0
 19 32  1  0
 20 33  1  0
 21 31  1  0
  1 34  1  0
  2 35  1  0
  3 36  1  0
  4 37  1  0
  5 38  1  0
  6 39  1  0
 15 40  1  0
 16 41  1  0
 17 42  1  0
 18 43  1  0
 19 44  1  0
 20 45  1  0
 20 46  1  0
 20 47  1  0
 21 48  1  0
 21 49  1  0
 23 50  1  0
 24 51  1  0
 24 52  1  0
 25 53  1  0
 26 54  1  0
 26 55  1  0
 28 56  1  0
 29 57  1  0
 30 58  1  0
 31 59  1  0
M  CHG  1  26   1
M  END
> <Name>
BR010696

$$$$
BR010697
  SciTegic05062102053D

 80 84  0  0  1  0            999 V2000
    7.0776   -4.2178   -9.9701 C   0  0
    9.2129   -2.2484  -14.5441 C   0  0
   10.4088   -2.0647  -15.2461 C   0  0
    6.4008   -4.5575   -8.7987 C   0  0
    8.9354   -3.4003   -8.6597 C   0  0
   11.7322   -2.6900  -13.3005 C   0  0
    8.3450   -3.6393   -9.9006 C   0  0
   10.5408   -2.8792  -12.5801 C   0  0
    9.3218   -2.6557  -13.2141 C   0  0
   11.6472   -2.2811  -14.6373 C   0  0
    6.9913   -4.3185   -7.5578 C   0  0
    8.2587   -3.7399   -7.4883 C   0  0
    9.0449   -3.2884  -11.1123 C   0  0
   14.0849   -1.6792  -14.8782 C   0  0
    0.4788    0.5545   -1.9482 C   0  0  1  0  0  0
    3.1946   -3.8104   -4.5154 C   0  0  1  0  0  0
    0.8838   -0.2837   -0.7353 C   0  0  2  0  0  0
    3.3736   -2.2958   -4.6205 C   0  0  1  0  0  0
    0.6540   -0.2355   -3.2448 C   0  0  2  0  0  0
    4.4801   -4.5469   -4.8926 C   0  0  2  0  0  0
    2.2922   -0.8509   -0.9441 C   0  0  1  0  0  0
    3.9923   -1.9141   -5.9673 C   0  0  1  0  0  0
    5.0556   -4.0230   -6.2082 C   0  0  1  0  0  0
    2.0523   -0.8532   -3.3182 C   0  0  1  0  0  0
    9.6546   -4.5430   -5.7384 C   0  0
    2.7412   -1.7604    0.1933 C   0  0
    4.2972   -0.4222   -6.0605 C   0  0
   10.3488   -3.2716  -11.2752 N   0  0
    8.3827   -2.9251  -12.2518 N   0  0
   14.1176   -0.8563  -13.7514 N   0  0
   12.8333   -2.0848  -15.3805 N   0  0
   15.2943   -2.0171  -15.4770 N   0  3
    2.3325   -1.6237   -2.1504 O   0  0
    5.2271   -2.6088   -6.1508 O   0  0
   -0.8765    0.9704   -1.8046 O   0  0
    2.8471   -4.1334   -3.1679 O   0  0
   -0.0555   -1.3505   -0.5852 O   0  0
    0.4733    0.6579   -4.3432 O   0  0
    4.1797   -5.9357   -5.0233 O   0  0
    4.1533   -1.8653    0.1580 O   0  0
    4.8739   -0.1583   -7.3264 O   0  0
    6.3177   -4.6557   -6.4159 O   0  0
    8.8462   -3.5016   -6.2825 O   0  0
    2.0984   -1.6910   -4.4725 O   0  0
    6.6037   -4.4107  -10.9296 H   0  0
    8.2507   -2.0807  -15.0143 H   0  0
   10.3651   -1.7463  -16.2854 H   0  0
    5.4139   -5.0078   -8.8599 H   0  0
    9.9238   -2.9499   -8.5954 H   0  0
   12.6962   -2.8574  -12.8299 H   0  0
    1.0888    1.4661   -1.9840 H   0  0
    2.3557   -4.1426   -5.1397 H   0  0
    0.8284    0.3270    0.1731 H   0  0
    4.0047   -1.9535   -3.7902 H   0  0
   -0.1221   -1.0060   -3.3290 H   0  0
    5.2153   -4.4532   -4.0833 H   0  0
    3.0146   -0.0291   -1.0319 H   0  0
    3.3092   -2.1657   -6.7894 H   0  0
    4.4098   -4.2929   -7.0535 H   0  0
    2.8161   -0.0757   -3.4459 H   0  0
   10.0624   -4.2238   -4.7762 H   0  0
   10.4670   -4.7748   -6.4317 H   0  0
    9.0375   -5.4328   -5.5928 H   0  0
    2.3042   -2.7523    0.0733 H   0  0
    2.4361   -1.3388    1.1517 H   0  0
    5.0000   -0.1366   -5.2778 H   0  0
    3.3772    0.1530   -5.9566 H   0  0
    7.3797   -2.8650  -12.3695 H   0  0
   13.2606   -0.5523  -13.2955 H   0  0
   14.9994   -0.5408  -13.3544 H   0  0
   12.8037   -2.2890  -16.3875 H   0  0
   16.1706   -1.6399  -15.1232 H   0  0
   15.3489   -2.5767  -16.3225 H   0  0
   -0.9197    1.4955   -0.9903 H   0  0
    3.5804   -3.8242   -2.6154 H   0  0
    0.2306   -1.8581    0.1885 H   0  0
    1.1507    1.3450   -4.2520 H   0  0
    3.5116   -6.0075   -5.7218 H   0  0
    4.4142   -2.4486    0.8908 H   0  0
    5.0590    0.7957   -7.3626 H   0  0
  1  4  2  0
  1  7  1  0
  2  3  2  0
  2  9  1  0
  3 10  1  0
  4 11  1  0
  5  7  2  0
  5 12  1  0
  6  8  1  0
  6 10  2  0
  7 13  1  0
  8  9  2  0
  8 28  1  0
  9 29  1  0
 10 31  1  0
 11 12  2  0
 11 42  1  0
 12 43  1  0
 13 28  2  0
 13 29  1  0
 14 30  1  0
 14 31  1  0
 14 32  2  0
 15 17  1  0
 15 19  1  0
 15 35  1  0
 16 18  1  0
 16 20  1  0
 16 36  1  0
 17 21  1  0
 17 37  1  0
 18 22  1  0
 18 44  1  0
 19 24  1  0
 19 38  1  0
 20 23  1  0
 20 39  1  0
 21 26  1  0
 21 33  1  0
 22 27  1  0
 22 34  1  0
 23 34  1  0
 23 42  1  0
 24 33  1  0
 24 44  1  0
 25 43  1  0
 26 40  1  0
 27 41  1  0
  1 45  1  0
  2 46  1  0
  3 47  1  0
  4 48  1  0
  5 49  1  0
  6 50  1  0
 15 51  1  0
 16 52  1  0
 17 53  1  0
 18 54  1  0
 19 55  1  0
 20 56  1  0
 21 57  1  0
 22 58  1  0
 23 59  1  0
 24 60  1  0
 25 61  1  0
 25 62  1  0
 25 63  1  0
 26 64  1  0
 26 65  1  0
 27 66  1  0
 27 67  1  0
 29 68  1  0
 30 69  1  0
 30 70  1  0
 31 71  1  0
 32 72  1  0
 32 73  1  0
 35 74  1  0
 36 75  1  0
 37 76  1  0
 38 77  1  0
 39 78  1  0
 40 79  1  0
 41 80  1  0
M  CHG  1  32   1
M  END
> <Name>
BR010697

$$$$
BR010698
  SciTegic05062102053D

 65 68  0  0  1  0            999 V2000
    5.8070   -0.2788   -2.8714 C   0  0
    9.5874   -4.0397   -1.9103 C   0  0
   10.6421   -4.3914   -1.0615 C   0  0
    4.7082    0.5275   -3.1679 C   0  0
    5.3775    0.0037   -0.5107 C   0  0
   10.0440   -2.6447    0.5258 C   0  0
    6.1417   -0.5408   -1.5428 C   0  0
    8.9797   -2.2777   -0.3150 C   0  0
    8.7797   -2.9780   -1.5013 C   0  0
   10.8682   -3.7077    0.1354 C   0  0
    3.9440    1.0720   -2.1358 C   0  0
    4.2786    0.8101   -0.8072 C   0  0
    7.2780   -1.3751   -1.2364 C   0  0
    0.0390    2.6492   -0.5069 C   0  0
   12.6843   -3.2606    1.8279 C   0  0
    0.5043    1.9256   -2.8399 C   0  0  2  0  0  0
   -0.6292    1.4516   -3.7546 C   0  0  2  0  0  0
   -0.2255    1.5156   -5.2293 C   0  0  1  0  0  0
    1.1315    0.8416   -5.4476 C   0  0  1  0  0  0
    1.8329    1.2598   -3.2146 C   0  0  1  0  0  0
   -0.3040    2.1429    0.8548 C   0  0
    3.9378    2.6118    0.7072 C   0  0
    1.6243    0.9867   -6.8839 C   0  0
    8.0373   -1.2860   -0.1675 N   0  0
    7.6848   -2.3793   -2.0701 N   0  0
   12.8362   -1.9153    1.4889 N   0  0
   11.9446   -4.0936    0.9662 N   0  0
    0.1759    1.6558   -1.4553 N   0  0
   13.3152   -3.7207    2.9793 N   0  3
    0.1695    3.8541   -0.6884 O   0  0
    2.1110    1.4463   -4.6013 O   0  0
   -1.7635    2.2962   -3.5494 O   0  0
   -1.2356    0.8610   -5.9922 O   0  0
    2.8832    0.3482   -6.9953 O   0  0
    2.8687    1.8615   -2.4389 O   0  0
    3.5401    1.3357    0.2098 O   0  0
    6.3925   -0.6958   -3.6873 H   0  0
    9.4102   -4.5685   -2.8398 H   0  0
   11.2948   -5.2137   -1.3465 H   0  0
    4.4530    0.7276   -4.2049 H   0  0
    5.6304   -0.1953    0.5286 H   0  0
   10.2221   -2.1151    1.4566 H   0  0
    0.6011    3.0167   -2.9084 H   0  0
   -0.9391    0.4325   -3.4891 H   0  0
   -0.1954    2.5664   -5.5448 H   0  0
    1.0698   -0.2315   -5.2233 H   0  0
    1.8172    0.1873   -2.9812 H   0  0
    0.5905    1.9252    1.4602 H   0  0
   -0.8820    2.8745    1.4421 H   0  0
   -0.9012    1.2173    0.8769 H   0  0
    3.2664    2.9146    1.5144 H   0  0
    3.9058    3.3455   -0.1023 H   0  0
    4.9579    2.5412    1.0920 H   0  0
    1.7320    2.0419   -7.1356 H   0  0
    0.9194    0.5154   -7.5689 H   0  0
    7.2577   -2.6390   -2.9496 H   0  0
   12.4236   -1.5357    0.6402 H   0  0
   13.3612   -1.2780    2.0830 H   0  0
   12.2030   -5.0883    0.9797 H   0  0
    0.0402    0.6922   -1.1694 H   0  0
   13.9014   -3.0991    3.5320 H   0  0
   13.2854   -4.6935    3.2683 H   0  0
   -1.4788    3.1942   -3.7751 H   0  0
   -1.2740   -0.0538   -5.6726 H   0  0
    3.1761    0.4536   -7.9166 H   0  0
  1  4  2  0
  1  7  1  0
  2  3  2  0
  2  9  1  0
  3 10  1  0
  4 11  1  0
  5  7  2  0
  5 12  1  0
  6  8  1  0
  6 10  2  0
  7 13  1  0
  8  9  2  0
  8 24  1  0
  9 25  1  0
 10 27  1  0
 11 12  2  0
 11 35  1  0
 12 36  1  0
 13 24  2  0
 13 25  1  0
 14 21  1  0
 14 28  1  0
 14 30  2  0
 15 26  1  0
 15 27  1  0
 15 29  2  0
 16 17  1  0
 16 20  1  0
 16 28  1  0
 17 18  1  0
 17 32  1  0
 18 19  1  0
 18 33  1  0
 19 23  1  0
 19 31  1  0
 20 31  1  0
 20 35  1  0
 22 36  1  0
 23 34  1  0
  1 37  1  0
  2 38  1  0
  3 39  1  0
  4 40  1  0
  5 41  1  0
  6 42  1  0
 16 43  1  0
 17 44  1  0
 18 45  1  0
 19 46  1  0
 20 47  1  0
 21 48  1  0
 21 49  1  0
 21 50  1  0
 22 51  1  0
 22 52  1  0
 22 53  1  0
 23 54  1  0
 23 55  1  0
 25 56  1  0
 26 57  1  0
 26 58  1  0
 27 59  1  0
 28 60  1  0
 29 61  1  0
 29 62  1  0
 32 63  1  0
 33 64  1  0
 34 65  1  0
M  CHG  1  29   1
M  END
> <Name>
BR010698

$$$$
BR010699
  SciTegic05062102053D

 56 57  0  0  1  0            999 V2000
    1.4395   -5.4226   -5.6152 C   0  0
    1.9271   -4.4726   -6.5126 C   0  0
    1.1840   -5.0649   -4.2914 C   0  0
    1.9038   -2.8073   -4.7624 C   0  0
    2.1593   -3.1650   -6.0862 C   0  0
    1.4162   -3.7573   -3.8650 C   0  0
    2.6675   -2.1739   -7.0217 C   0  0
   -2.9489   -2.3852    0.9259 C   0  0
   -1.9601    1.2972    0.6303 C   0  0
   -0.5781   -4.9802   -0.7549 C   0  0
    2.0851    2.3919   -3.8973 C   0  0
   -1.4240   -1.4908   -0.6420 C   0  0  1  0  0  0
   -0.7391   -0.1332   -0.8004 C   0  0  1  0  0  0
   -0.4804   -2.6337   -1.0165 C   0  0  2  0  0  0
   -0.0643   -0.0218   -2.1696 C   0  0  1  0  0  0
    0.2035   -2.3731   -2.3586 C   0  0  1  0  0  0
   -3.2456   -2.4561    2.3933 C   0  0
   -3.0176    2.3592    0.6347 C   0  0
   -1.4975   -6.1567   -0.8841 C   0  0
    2.6512    2.2726   -5.2799 C   0  0
    0.7314    1.2714   -2.3175 C   0  0
    2.8925   -1.0024   -6.7057 O   0  0
   -3.6287   -2.9235    0.0626 O   0  0
   -1.4018    0.8821    1.6368 O   0  0
    0.5888   -5.0588   -0.3953 O   0  0
    2.2827    3.3451   -3.1560 O   0  0
    0.8515   -1.1032   -2.3511 O   0  0
    1.1656   -3.4063   -2.5667 O   0  0
   -1.8241   -1.6404    0.7212 O   0  0
   -1.7290    0.8812   -0.6501 O   0  0
   -1.2427   -3.8373   -1.0959 O   0  0
    1.3285    1.2888   -3.6013 O   0  0
    1.2587   -6.4406   -5.9474 H   0  0
    2.1218   -4.7615   -7.5421 H   0  0
    0.8042   -5.8094   -3.5971 H   0  0
    2.0825   -1.7888   -4.4249 H   0  0
    2.8557   -2.5057   -8.0659 H   0  0
   -2.3429   -1.5299   -1.2405 H   0  0
   -0.0062   -0.0080    0.0071 H   0  0
    0.2643   -2.7781   -0.2236 H   0  0
   -0.8146   -0.0439   -2.9711 H   0  0
   -0.5186   -2.4258   -3.1832 H   0  0
   -2.7433   -3.3218    2.8318 H   0  0
   -4.3255   -2.5163    2.5509 H   0  0
   -2.8728   -1.5517    2.8827 H   0  0
   -2.5548    3.3438    0.5316 H   0  0
   -3.5980    2.3008    1.5589 H   0  0
   -3.6935    2.2014   -0.2108 H   0  0
   -2.0182   -6.3261    0.0616 H   0  0
   -0.9275   -7.0428   -1.1746 H   0  0
   -2.2413   -5.9522   -1.6598 H   0  0
    3.6230    1.7743   -5.2410 H   0  0
    2.7441    3.2643   -5.7296 H   0  0
    1.9763    1.6727   -5.8974 H   0  0
    1.5109    1.3176   -1.5570 H   0  0
    0.0680    2.1303   -2.2170 H   0  0
  1  2  1  0
  1  3  2  0
  2  5  2  0
  3  6  1  0
  4  5  1  0
  4  6  2  0
  5  7  1  0
  6 28  1  0
  7 22  2  0
  8 17  1  0
  8 23  2  0
  8 29  1  0
  9 18  1  0
  9 24  2  0
  9 30  1  0
 10 19  1  0
 10 25  2  0
 10 31  1  0
 11 20  1  0
 11 26  2  0
 11 32  1  0
 12 13  1  0
 12 14  1  0
 12 29  1  0
 13 15  1  0
 13 30  1  0
 14 16  1  0
 14 31  1  0
 15 21  1  0
 15 27  1  0
 16 27  1  0
 16 28  1  0
 21 32  1  0
  1 33  1  0
  2 34  1  0
  3 35  1  0
  4 36  1  0
  7 37  1  0
 12 38  1  0
 13 39  1  0
 14 40  1  0
 15 41  1  0
 16 42  1  0
 17 43  1  0
 17 44  1  0
 17 45  1  0
 18 46  1  0
 18 47  1  0
 18 48  1  0
 19 49  1  0
 19 50  1  0
 19 51  1  0
 20 52  1  0
 20 53  1  0
 20 54  1  0
 21 55  1  0
 21 56  1  0
M  END
> <Name>
BR010699

$$$$
BR010700
  SciTegic05062102053D

 82 85  0  0  1  0            999 V2000
    5.3156   -2.6074   -5.9699 C   0  0
    4.7979   -4.1535   -4.1870 C   0  0
   10.7203   -6.8206   -5.3604 C   0  0
    9.7170   -6.4061   -4.4782 C   0  0
    4.1231   -1.9264   -5.7257 C   0  0
    3.6054   -3.4724   -3.9427 C   0  0
    9.6337   -5.7088   -7.2342 C   0  0
    5.6530   -3.7210   -5.2006 C   0  0
   10.6814   -6.4793   -6.7143 C   0  0
    8.6171   -5.2840   -6.3623 C   0  0
    8.6835   -5.6399   -5.0182 C   0  0
    3.2680   -2.3589   -4.7121 C   0  0
    6.8863   -4.4253   -5.4533 C   0  0
   11.7381   -6.9274   -7.5951 C   0  0
   -0.1514    2.7277   -1.1123 C   0  0
   -2.1676   -0.5982   -0.6712 C   0  0
    1.6033    1.0954   -5.3880 C   0  0
   -0.0513   -3.2307    2.0855 C   0  0
    0.7233    0.6893   -1.9268 C   0  0  1  0  0  0
    0.1626   -0.3970   -1.0083 C   0  0  2  0  0  0
    1.0679    0.1207   -3.3030 C   0  0  2  0  0  0
    1.1199   -1.5934   -0.9760 C   0  0  1  0  0  0
    1.9375   -1.1315   -3.1696 C   0  0  1  0  0  0
   -1.2083    3.7587   -1.3695 C   0  0
   -3.4304   -1.0693   -1.3265 C   0  0
    2.4078    2.1903   -6.0204 C   0  0
   -0.1861   -2.6172    3.4462 C   0  0
   11.7358   -8.3660  -10.9778 C   0  0
   12.9686   -9.5401   -9.1210 C   0  0
    0.5950   -2.7518   -0.1363 C   0  0
   12.4112   -8.2159   -9.6224 C   0  0
    7.4941   -4.5296   -6.6137 N   0  0
    7.5639   -5.0772   -4.4609 N   0  0
   11.4343   -7.7147   -8.6524 N   0  0
   13.0078   -6.5531   -7.3435 N   0  3
    0.6512    2.7844   -0.1904 O   0  0
   -2.1187   -0.1064    0.4481 O   0  0
    0.8996    0.3135   -6.0130 O   0  0
   -0.3267   -4.3949    1.8285 O   0  0
    1.3267   -2.0883   -2.3049 O   0  0
    2.0984   -1.6910   -4.4725 O   0  0
   -0.2303    1.7405   -2.0532 O   0  0
   -1.1121   -0.8043   -1.5106 O   0  0
    1.7818    1.1166   -4.0347 O   0  0
    0.4192   -2.3021    1.1952 O   0  0
    5.9716   -2.2579   -6.7637 H   0  0
    5.0468   -5.0198   -3.5786 H   0  0
   11.5417   -7.4206   -4.9741 H   0  0
    9.7440   -6.6708   -3.4274 H   0  0
    3.8656   -1.0596   -6.3283 H   0  0
    2.9433   -3.8140   -3.1517 H   0  0
    9.6037   -5.4437   -8.2867 H   0  0
    1.6205    1.1273   -1.4713 H   0  0
   -0.0004    0.0130   -0.0050 H   0  0
    0.1516   -0.0940   -3.8664 H   0  0
    2.0891   -1.2829   -0.5645 H   0  0
    2.9371   -0.8744   -2.7968 H   0  0
   -0.8169    4.5334   -2.0335 H   0  0
   -1.5403    4.1936   -0.4233 H   0  0
   -2.0667    3.2849   -1.8544 H   0  0
   -3.8817   -0.2512   -1.8932 H   0  0
   -4.1244   -1.4424   -0.5691 H   0  0
   -3.1981   -1.8852   -2.0171 H   0  0
    1.8094    3.1026   -6.0813 H   0  0
    2.7399    1.8799   -7.0143 H   0  0
    3.2904    2.3927   -5.4066 H   0  0
    0.7455   -2.7423    4.0034 H   0  0
   -1.0200   -3.0794    3.9806 H   0  0
   -0.3897   -1.5473    3.3430 H   0  0
   10.9205   -9.0951  -10.9286 H   0  0
   11.3212   -7.4133  -11.3258 H   0  0
   12.4518   -8.7085  -11.7329 H   0  0
   12.1741  -10.2900   -9.0399 H   0  0
   13.4252   -9.4219   -8.1329 H   0  0
   13.7285   -9.9384   -9.8026 H   0  0
    1.3108   -3.5747   -0.1460 H   0  0
   -0.3628   -3.0945   -0.5293 H   0  0
   13.2221   -7.4830   -9.6954 H   0  0
    7.2929   -5.1358   -3.4880 H   0  0
   10.4555   -7.9566   -8.7762 H   0  0
   13.2515   -5.9616   -6.5572 H   0  0
   13.7598   -6.8550   -7.9534 H   0  0
  1  5  1  0
  1  8  2  0
  2  6  2  0
  2  8  1  0
  3  4  2  0
  3  9  1  0
  4 11  1  0
  5 12  2  0
  6 12  1  0
  7  9  2  0
  7 10  1  0
  8 13  1  0
  9 14  1  0
 10 11  2  0
 10 32  1  0
 11 33  1  0
 12 41  1  0
 13 32  2  0
 13 33  1  0
 14 34  1  0
 14 35  2  0
 15 24  1  0
 15 36  2  0
 15 42  1  0
 16 25  1  0
 16 37  2  0
 16 43  1  0
 17 26  1  0
 17 38  2  0
 17 44  1  0
 18 27  1  0
 18 39  2  0
 18 45  1  0
 19 20  1  0
 19 21  1  0
 19 42  1  0
 20 22  1  0
 20 43  1  0
 21 23  1  0
 21 44  1  0
 22 30  1  0
 22 40  1  0
 23 40  1  0
 23 41  1  0
 28 31  1  0
 29 31  1  0
 30 45  1  0
 31 34  1  0
  1 46  1  0
  2 47  1  0
  3 48  1  0
  4 49  1  0
  5 50  1  0
  6 51  1  0
  7 52  1  0
 19 53  1  0
 20 54  1  0
 21 55  1  0
 22 56  1  0
 23 57  1  0
 24 58  1  0
 24 59  1  0
 24 60  1  0
 25 61  1  0
 25 62  1  0
 25 63  1  0
 26 64  1  0
 26 65  1  0
 26 66  1  0
 27 67  1  0
 27 68  1  0
 27 69  1  0
 28 70  1  0
 28 71  1  0
 28 72  1  0
 29 73  1  0
 29 74  1  0
 29 75  1  0
 30 76  1  0
 30 77  1  0
 31 78  1  0
 33 79  1  0
 34 80  1  0
 35 81  1  0
 35 82  1  0
M  CHG  1  35   1
M  END
> <Name>
BR010700

$$$$
BR010701
  SciTegic05062102053D

 82 85  0  0  1  0            999 V2000
    5.3154   -2.6067   -5.9705 C   0  0
    5.6533   -3.7202   -5.2015 C   0  0
    7.0956   -8.6532   -1.0600 C   0  0
    7.4742   -7.5395   -1.8170 C   0  0
    4.1227   -1.9260   -5.7258 C   0  0
    3.6059   -3.4724   -3.9430 C   0  0
    4.7333   -8.1878   -1.4219 C   0  0
    4.7986   -4.1531   -4.1877 C   0  0
    5.7501   -8.9735   -0.8648 C   0  0
    5.0956   -7.0651   -2.1852 C   0  0
    6.4447   -6.7716   -2.3622 C   0  0
    3.2680   -2.3589   -4.7121 C   0  0
    5.1481   -5.3042   -3.3920 C   0  0
    5.3987  -10.1337   -0.0750 C   0  0
   -0.1514    2.7277   -1.1123 C   0  0
   -2.1676   -0.5982   -0.6712 C   0  0
    1.6033    1.0954   -5.3880 C   0  0
    1.2169   -4.9314    0.5319 C   0  0
    0.7233    0.6893   -1.9268 C   0  0  1  0  0  0
    0.1626   -0.3970   -1.0083 C   0  0  2  0  0  0
    1.0679    0.1207   -3.3030 C   0  0  2  0  0  0
    1.1199   -1.5934   -0.9760 C   0  0  1  0  0  0
    1.9375   -1.1315   -3.1696 C   0  0  1  0  0  0
   -1.2083    3.7587   -1.3695 C   0  0
   -3.4304   -1.0693   -1.3265 C   0  0
    2.4078    2.1903   -6.0204 C   0  0
    2.3025   -5.9557    0.3958 C   0  0
    2.8770  -10.7148    2.5356 C   0  0
    5.2848  -11.3166    2.9674 C   0  0
    0.5950   -2.7518   -0.1363 C   0  0
    4.2172  -11.0742    1.9106 C   0  0
    4.3053   -6.1429   -2.8321 N   0  0
    6.4487   -5.6407   -3.1378 N   0  0
    4.6507   -9.9775    1.0412 N   0  0
    5.8265  -11.3501   -0.4660 N   0  3
    0.6512    2.7844   -0.1904 O   0  0
   -2.1187   -0.1064    0.4481 O   0  0
    0.8996    0.3135   -6.0130 O   0  0
    0.1969   -5.0970    1.1871 O   0  0
    1.3267   -2.0883   -2.3049 O   0  0
    2.0984   -1.6910   -4.4725 O   0  0
   -0.2303    1.7405   -2.0532 O   0  0
   -1.1121   -0.8043   -1.5106 O   0  0
    1.7818    1.1166   -4.0347 O   0  0
    1.5405   -3.8057   -0.1784 O   0  0
    5.9805   -2.2693   -6.7600 H   0  0
    6.5863   -4.2407   -5.4043 H   0  0
    7.8721   -9.2746   -0.6188 H   0  0
    8.5176   -7.2879   -1.9689 H   0  0
    3.8649   -1.0593   -6.3286 H   0  0
    2.9318   -3.8022   -3.1550 H   0  0
    3.6875   -8.4370   -1.2700 H   0  0
    1.6205    1.1273   -1.4713 H   0  0
   -0.0004    0.0130   -0.0050 H   0  0
    0.1516   -0.0940   -3.8664 H   0  0
    2.0891   -1.2829   -0.5645 H   0  0
    2.9371   -0.8744   -2.7968 H   0  0
   -0.8169    4.5334   -2.0335 H   0  0
   -1.5403    4.1936   -0.4233 H   0  0
   -2.0667    3.2849   -1.8544 H   0  0
   -3.8817   -0.2512   -1.8932 H   0  0
   -4.1244   -1.4424   -0.5691 H   0  0
   -3.1981   -1.8852   -2.0171 H   0  0
    1.8094    3.1026   -6.0813 H   0  0
    2.7399    1.8799   -7.0143 H   0  0
    3.2904    2.3927   -5.4066 H   0  0
    2.1018   -6.5965   -0.4664 H   0  0
    2.3687   -6.5498    1.3107 H   0  0
    3.2601   -5.4505    0.2393 H   0  0
    2.9652   -9.8189    3.1589 H   0  0
    2.1167  -10.5244    1.7698 H   0  0
    2.5109  -11.5321    3.1665 H   0  0
    5.4144  -10.4307    3.5987 H   0  0
    6.2492  -11.5454    2.5022 H   0  0
    5.0160  -12.1518    3.6239 H   0  0
   -0.3548   -3.1050   -0.5393 H   0  0
    0.4587   -2.4326    0.8975 H   0  0
    4.1052  -11.9717    1.2926 H   0  0
    7.2702   -5.1477   -3.4627 H   0  0
    4.3673   -9.0299    1.2729 H   0  0
    6.3854  -11.4842   -1.3010 H   0  0
    5.5856  -12.1743    0.0738 H   0  0
  1  2  1  0
  1  5  2  0
  2  8  2  0
  3  4  2  0
  3  9  1  0
  4 11  1  0
  5 12  1  0
  6  8  1  0
  6 12  2  0
  7  9  2  0
  7 10  1  0
  8 13  1  0
  9 14  1  0
 10 11  2  0
 10 32  1  0
 11 33  1  0
 12 41  1  0
 13 32  2  0
 13 33  1  0
 14 34  1  0
 14 35  2  0
 15 24  1  0
 15 36  2  0
 15 42  1  0
 16 25  1  0
 16 37  2  0
 16 43  1  0
 17 26  1  0
 17 38  2  0
 17 44  1  0
 18 27  1  0
 18 39  2  0
 18 45  1  0
 19 20  1  0
 19 21  1  0
 19 42  1  0
 20 22  1  0
 20 43  1  0
 21 23  1  0
 21 44  1  0
 22 30  1  0
 22 40  1  0
 23 40  1  0
 23 41  1  0
 28 31  1  0
 29 31  1  0
 30 45  1  0
 31 34  1  0
  1 46  1  0
  2 47  1  0
  3 48  1  0
  4 49  1  0
  5 50  1  0
  6 51  1  0
  7 52  1  0
 19 53  1  0
 20 54  1  0
 21 55  1  0
 22 56  1  0
 23 57  1  0
 24 58  1  0
 24 59  1  0
 24 60  1  0
 25 61  1  0
 25 62  1  0
 25 63  1  0
 26 64  1  0
 26 65  1  0
 26 66  1  0
 27 67  1  0
 27 68  1  0
 27 69  1  0
 28 70  1  0
 28 71  1  0
 28 72  1  0
 29 73  1  0
 29 74  1  0
 29 75  1  0
 30 76  1  0
 30 77  1  0
 31 78  1  0
 33 79  1  0
 34 80  1  0
 35 81  1  0
 35 82  1  0
M  CHG  1  35   1
M  END
> <Name>
BR010701

$$$$
BR010702
  SciTegic05062102053D

 62 65  0  0  1  0            999 V2000
    4.5006   -3.9590   -6.0593 C   0  0
    4.7752   -4.0594   -3.6610 C   0  0
    9.2473   -8.7778   -4.8016 C   0  0
    8.1919   -8.2460   -4.0533 C   0  0
    3.4769   -3.0246   -5.9030 C   0  0
    3.7515   -3.1248   -3.5047 C   0  0
    8.9162   -7.1378   -6.5704 C   0  0
    5.1497   -4.4765   -4.9383 C   0  0
    9.6048   -8.2351   -6.0380 C   0  0
    7.8531   -6.5909   -5.8322 C   0  0
    7.5205   -7.1535   -4.6031 C   0  0
    3.1024   -2.6074   -4.6258 C   0  0
    6.2083   -5.4429   -5.0999 C   0  0
   10.7024   -8.8136   -6.7823 C   0  0
   -1.3303   -1.3573   -2.9995 C   0  0  1  0  0  0
   -1.8800   -2.6354   -3.6338 C   0  0  2  0  0  0
   -0.0192   -0.9354   -3.6619 C   0  0  2  0  0  0
   -0.7966   -3.7195   -3.6376 C   0  0  1  0  0  0
    0.9620   -2.1086   -3.7171 C   0  0  1  0  0  0
   11.1497   -9.6597  -10.3314 C   0  0
   11.6083  -11.3962   -8.5650 C   0  0
   -1.2452   -5.0054   -4.3214 C   0  0
   11.5078   -9.9096   -8.8735 C   0  0
    7.0274   -5.5295   -6.1240 N   0  0
    6.4654   -6.3994   -4.1575 N   0  0
   10.4771   -9.3161   -8.0179 N   0  0
   11.9302   -8.8431   -6.2281 N   0  3
    0.3631   -3.2471   -4.3345 O   0  0
   -2.2976   -0.3175   -3.1161 O   0  0
   -2.2825   -2.3418   -4.9735 O   0  0
    0.5521    0.1232   -2.8938 O   0  0
   -0.4032   -6.0617   -3.8954 O   0  0
    2.0984   -1.6910   -4.4725 O   0  0
    4.7810   -4.2741   -7.0616 H   0  0
    5.2715   -4.4534   -2.7773 H   0  0
    9.7930   -9.6310   -4.4040 H   0  0
    7.9115   -8.6662   -3.0942 H   0  0
    2.9749   -2.6251   -6.7800 H   0  0
    3.4641   -2.8037   -2.5072 H   0  0
    9.1943   -6.7161   -7.5316 H   0  0
   -1.1678   -1.5211   -1.9266 H   0  0
   -2.7739   -2.9641   -3.0915 H   0  0
   -0.2111   -0.5347   -4.6648 H   0  0
   -0.5094   -3.9616   -2.6061 H   0  0
    1.3143   -2.3702   -2.7113 H   0  0
   10.1982  -10.1374  -10.5866 H   0  0
   11.0617   -8.5883  -10.5437 H   0  0
   11.9212  -10.0643  -10.9958 H   0  0
   10.6641  -11.9042   -8.7901 H   0  0
   11.8376  -11.5602   -7.5070 H   0  0
   12.3911  -11.8771   -9.1623 H   0  0
   -1.1685   -4.8992   -5.4041 H   0  0
   -2.2757   -5.2346   -4.0476 H   0  0
   12.4615   -9.4234   -8.6412 H   0  0
    5.9699   -6.5305   -3.2853 H   0  0
    9.5252   -9.2599   -8.3680 H   0  0
   12.1158   -8.4685   -5.3047 H   0  0
   12.7114   -9.2412   -6.7378 H   0  0
   -3.0902   -0.6235   -2.6484 H   0  0
   -2.6237   -3.1697   -5.3426 H   0  0
    0.7021   -0.2329   -2.0051 H   0  0
   -0.7088   -6.8684   -4.3440 H   0  0
  1  5  1  0
  1  8  2  0
  2  6  2  0
  2  8  1  0
  3  4  2  0
  3  9  1  0
  4 11  1  0
  5 12  2  0
  6 12  1  0
  7  9  2  0
  7 10  1  0
  8 13  1  0
  9 14  1  0
 10 11  2  0
 10 24  1  0
 11 25  1  0
 12 33  1  0
 13 24  2  0
 13 25  1  0
 14 26  1  0
 14 27  2  0
 15 16  1  0
 15 17  1  0
 15 29  1  0
 16 18  1  0
 16 30  1  0
 17 19  1  0
 17 31  1  0
 18 22  1  0
 18 28  1  0
 19 28  1  0
 19 33  1  0
 20 23  1  0
 21 23  1  0
 22 32  1  0
 23 26  1  0
  1 34  1  0
  2 35  1  0
  3 36  1  0
  4 37  1  0
  5 38  1  0
  6 39  1  0
  7 40  1  0
 15 41  1  0
 16 42  1  0
 17 43  1  0
 18 44  1  0
 19 45  1  0
 20 46  1  0
 20 47  1  0
 20 48  1  0
 21 49  1  0
 21 50  1  0
 21 51  1  0
 22 52  1  0
 22 53  1  0
 23 54  1  0
 25 55  1  0
 26 56  1  0
 27 57  1  0
 27 58  1  0
 29 59  1  0
 30 60  1  0
 31 61  1  0
 32 62  1  0
M  CHG  1  27   1
M  END
> <Name>
BR010702

$$$$
BR010703
  SciTegic05062102053D

 62 65  0  0  1  0            999 V2000
    5.2263   -3.5205   -3.9241 C   0  0
    5.1504   -4.4759   -4.9375 C   0  0
    2.8301   -8.5068  -10.0073 C   0  0
    2.2043   -7.6634   -9.0834 C   0  0
    4.2022   -2.5863   -3.7682 C   0  0
    3.0265   -3.5629   -5.6392 C   0  0
    5.0381   -7.7581   -9.3055 C   0  0
    4.0505   -4.4971   -5.7951 C   0  0
    4.2217   -8.5550  -10.1180 C   0  0
    4.4262   -6.9047   -8.3719 C   0  0
    3.0371   -6.8789   -8.2848 C   0  0
    3.1024   -2.6074   -4.6258 C   0  0
    3.9716   -5.4854   -6.8427 C   0  0
    4.8316   -9.4404  -11.0862 C   0  0
   -1.4081   -1.5975   -3.1560 C   0  0  1  0  0  0
   -2.0686   -1.9334   -4.4935 C   0  0  2  0  0  0
    0.0495   -1.1818   -3.3524 C   0  0  2  0  0  0
   -1.2157   -2.9578   -5.2500 C   0  0  1  0  0  0
    0.7955   -2.2091   -4.2069 C   0  0  1  0  0  0
    7.5946   -9.0174  -13.4735 C   0  0
    5.3716   -9.8892  -14.2761 C   0  0
   -1.7715   -3.2910   -6.6293 C   0  0
    6.3006   -9.7169  -13.0834 C   0  0
    4.9893   -6.0329   -7.4685 N   0  0
    2.7744   -5.9626   -7.2989 N   0  0
    5.6160   -8.9234  -12.0595 N   0  0
    4.6040  -10.7657  -11.0011 N   0  3
    0.1100   -2.4463   -5.4357 O   0  0
   -2.1365   -0.5521   -2.5181 O   0  0
   -2.1827   -0.7318   -5.2591 O   0  0
    0.6687   -1.0945   -2.0694 O   0  0
   -1.2189   -4.5241   -7.0538 O   0  0
    2.0984   -1.6910   -4.4725 O   0  0
    6.0825   -3.5035   -3.2561 H   0  0
    5.9566   -5.1974   -5.0466 H   0  0
    2.2117   -9.1325  -10.6474 H   0  0
    1.1245   -7.6230   -8.9964 H   0  0
    4.2673   -1.8442   -2.9769 H   0  0
    2.1644   -3.5704   -6.3032 H   0  0
    6.1198   -7.7958   -9.3918 H   0  0
   -1.4586   -2.4704   -2.4929 H   0  0
   -3.0849   -2.3063   -4.3224 H   0  0
    0.1031   -0.1824   -3.8014 H   0  0
   -1.1528   -3.8886   -4.6715 H   0  0
    0.9222   -3.1524   -3.6607 H   0  0
    7.3903   -8.0324  -13.9057 H   0  0
    8.2521   -8.8805  -12.6076 H   0  0
    8.1459   -9.6055  -14.2153 H   0  0
    5.1290   -8.9187  -14.7227 H   0  0
    4.4339  -10.3673  -13.9742 H   0  0
    5.8324  -10.5046  -15.0570 H   0  0
   -1.4981   -2.5109   -7.3407 H   0  0
   -2.8574   -3.3807   -6.5831 H   0  0
    6.5289  -10.6985  -12.6540 H   0  0
    1.8565   -5.6924   -6.9703 H   0  0
    5.7393   -7.9151  -12.0603 H   0  0
    4.0210  -11.1689  -10.2765 H   0  0
    5.0271  -11.4007  -11.6692 H   0  0
   -3.0380   -0.8841   -2.3858 H   0  0
   -2.6030   -0.9809   -6.0954 H   0  0
    0.6015   -1.9760   -1.6722 H   0  0
   -1.5877   -4.7139   -7.9332 H   0  0
  1  2  1  0
  1  5  2  0
  2  8  2  0
  3  4  2  0
  3  9  1  0
  4 11  1  0
  5 12  1  0
  6  8  1  0
  6 12  2  0
  7  9  2  0
  7 10  1  0
  8 13  1  0
  9 14  1  0
 10 11  2  0
 10 24  1  0
 11 25  1  0
 12 33  1  0
 13 24  2  0
 13 25  1  0
 14 26  1  0
 14 27  2  0
 15 16  1  0
 15 17  1  0
 15 29  1  0
 16 18  1  0
 16 30  1  0
 17 19  1  0
 17 31  1  0
 18 22  1  0
 18 28  1  0
 19 28  1  0
 19 33  1  0
 20 23  1  0
 21 23  1  0
 22 32  1  0
 23 26  1  0
  1 34  1  0
  2 35  1  0
  3 36  1  0
  4 37  1  0
  5 38  1  0
  6 39  1  0
  7 40  1  0
 15 41  1  0
 16 42  1  0
 17 43  1  0
 18 44  1  0
 19 45  1  0
 20 46  1  0
 20 47  1  0
 20 48  1  0
 21 49  1  0
 21 50  1  0
 21 51  1  0
 22 52  1  0
 22 53  1  0
 23 54  1  0
 25 55  1  0
 26 56  1  0
 27 57  1  0
 27 58  1  0
 29 59  1  0
 30 60  1  0
 31 61  1  0
 32 62  1  0
M  CHG  1  27   1
M  END
> <Name>
BR010703

$$$$
BR010704
  SciTegic05062102053D

 69 72  0  0  1  0            999 V2000
    5.3156   -2.6074   -5.9699 C   0  0
    4.7979   -4.1535   -4.1870 C   0  0
    9.7185   -6.4058   -4.4822 C   0  0
   10.7211   -6.8195   -5.3656 C   0  0
    4.1231   -1.9264   -5.7257 C   0  0
    3.6054   -3.4724   -3.9427 C   0  0
    9.6323   -5.7070   -7.2377 C   0  0
    5.6530   -3.7210   -5.2006 C   0  0
    8.6165   -5.2829   -6.3645 C   0  0
    8.6843   -5.6396   -5.0206 C   0  0
   10.6808   -6.4774   -6.7192 C   0  0
    3.2680   -2.3589   -4.7121 C   0  0
    6.8863   -4.4253   -5.4533 C   0  0
   -0.1514    2.7277   -1.1123 C   0  0
   -2.1676   -0.5982   -0.6712 C   0  0
    1.6033    1.0954   -5.3880 C   0  0
   -0.0513   -3.2307    2.0855 C   0  0
    0.7233    0.6893   -1.9268 C   0  0  1  0  0  0
    0.1626   -0.3970   -1.0083 C   0  0  2  0  0  0
    1.0679    0.1207   -3.3030 C   0  0  2  0  0  0
    1.1199   -1.5934   -0.9760 C   0  0  1  0  0  0
    1.9375   -1.1315   -3.1696 C   0  0  1  0  0  0
   -1.2083    3.7587   -1.3695 C   0  0
   -3.4304   -1.0693   -1.3265 C   0  0
    2.4078    2.1903   -6.0204 C   0  0
   -0.1861   -2.6172    3.4462 C   0  0
    0.5950   -2.7518   -0.1363 C   0  0
    7.4930   -4.5287   -6.6144 N   0  0
    7.5651   -5.0776   -4.4619 N   0  0
   11.7177   -6.9168   -7.5858 N   0  3
   12.6524   -7.6067   -7.1128 O   0  5
    0.6512    2.7844   -0.1904 O   0  0
   -2.1187   -0.1064    0.4481 O   0  0
    0.8996    0.3135   -6.0130 O   0  0
   -0.3267   -4.3949    1.8285 O   0  0
   11.6686   -6.6026   -8.7990 O   0  0
    1.3267   -2.0883   -2.3049 O   0  0
    2.0984   -1.6910   -4.4725 O   0  0
   -0.2303    1.7405   -2.0532 O   0  0
   -1.1121   -0.8043   -1.5106 O   0  0
    1.7818    1.1166   -4.0347 O   0  0
    0.4192   -2.3021    1.1952 O   0  0
    5.9716   -2.2579   -6.7637 H   0  0
    5.0468   -5.0198   -3.5786 H   0  0
    9.7479   -6.6701   -3.4312 H   0  0
   11.5419   -7.4188   -4.9761 H   0  0
    3.8656   -1.0596   -6.3283 H   0  0
    2.9433   -3.8140   -3.1517 H   0  0
    9.5969   -5.4393   -8.2896 H   0  0
    1.6205    1.1273   -1.4713 H   0  0
   -0.0004    0.0130   -0.0050 H   0  0
    0.1516   -0.0940   -3.8664 H   0  0
    2.0891   -1.2829   -0.5645 H   0  0
    2.9371   -0.8744   -2.7968 H   0  0
   -0.8169    4.5334   -2.0335 H   0  0
   -1.5403    4.1936   -0.4233 H   0  0
   -2.0667    3.2849   -1.8544 H   0  0
   -3.8817   -0.2512   -1.8932 H   0  0
   -4.1244   -1.4424   -0.5691 H   0  0
   -3.1981   -1.8852   -2.0171 H   0  0
    1.8094    3.1026   -6.0813 H   0  0
    2.7399    1.8799   -7.0143 H   0  0
    3.2904    2.3927   -5.4066 H   0  0
    0.7455   -2.7423    4.0034 H   0  0
   -1.0200   -3.0794    3.9806 H   0  0
   -0.3897   -1.5473    3.3430 H   0  0
    1.3108   -3.5747   -0.1460 H   0  0
   -0.3628   -3.0945   -0.5293 H   0  0
    7.2945   -5.1373   -3.4890 H   0  0
  1  5  1  0
  1  8  2  0
  2  6  2  0
  2  8  1  0
  3  4  2  0
  3 10  1  0
  4 11  1  0
  5 12  2  0
  6 12  1  0
  7  9  1  0
  7 11  2  0
  8 13  1  0
  9 10  2  0
  9 28  1  0
 10 29  1  0
 11 30  1  0
 12 38  1  0
 13 28  2  0
 13 29  1  0
 14 23  1  0
 14 32  2  0
 14 39  1  0
 15 24  1  0
 15 33  2  0
 15 40  1  0
 16 25  1  0
 16 34  2  0
 16 41  1  0
 17 26  1  0
 17 35  2  0
 17 42  1  0
 18 19  1  0
 18 20  1  0
 18 39  1  0
 19 21  1  0
 19 40  1  0
 20 22  1  0
 20 41  1  0
 21 27  1  0
 21 37  1  0
 22 37  1  0
 22 38  1  0
 27 42  1  0
 30 31  1  0
 30 36  2  0
  1 43  1  0
  2 44  1  0
  3 45  1  0
  4 46  1  0
  5 47  1  0
  6 48  1  0
  7 49  1  0
 18 50  1  0
 19 51  1  0
 20 52  1  0
 21 53  1  0
 22 54  1  0
 23 55  1  0
 23 56  1  0
 23 57  1  0
 24 58  1  0
 24 59  1  0
 24 60  1  0
 25 61  1  0
 25 62  1  0
 25 63  1  0
 26 64  1  0
 26 65  1  0
 26 66  1  0
 27 67  1  0
 27 68  1  0
 29 69  1  0
M  CHG  2  30   1  31  -1
M  END
> <Name>
BR010704

$$$$
BR010705
  SciTegic05062102053D

 69 72  0  0  1  0            999 V2000
    5.3154   -2.6067   -5.9705 C   0  0
    5.6533   -3.7202   -5.2015 C   0  0
    7.4709   -7.5420   -1.8157 C   0  0
    7.0908   -8.6553   -1.0590 C   0  0
    4.1227   -1.9260   -5.7258 C   0  0
    3.6059   -3.4724   -3.9430 C   0  0
    4.7292   -8.1875   -1.4224 C   0  0
    4.7986   -4.1531   -4.1877 C   0  0
    5.0930   -7.0651   -2.1853 C   0  0
    6.4426   -6.7729   -2.3615 C   0  0
    5.7449   -8.9742   -0.8646 C   0  0
    3.2680   -2.3589   -4.7121 C   0  0
    5.1481   -5.3042   -3.3920 C   0  0
   -0.1514    2.7277   -1.1123 C   0  0
   -2.1676   -0.5982   -0.6712 C   0  0
    1.6033    1.0954   -5.3880 C   0  0
    1.2169   -4.9314    0.5319 C   0  0
    0.7233    0.6893   -1.9268 C   0  0  1  0  0  0
    0.1626   -0.3970   -1.0083 C   0  0  2  0  0  0
    1.0679    0.1207   -3.3030 C   0  0  2  0  0  0
    1.1199   -1.5934   -0.9760 C   0  0  1  0  0  0
    1.9375   -1.1315   -3.1696 C   0  0  1  0  0  0
   -1.2083    3.7587   -1.3695 C   0  0
   -3.4304   -1.0693   -1.3265 C   0  0
    2.4078    2.1903   -6.0204 C   0  0
    2.3025   -5.9557    0.3958 C   0  0
    0.5950   -2.7518   -0.1363 C   0  0
    4.3041   -6.1421   -2.8327 N   0  0
    6.4482   -5.6420   -3.1370 N   0  0
    5.3980  -10.1133   -0.0891 N   0  3
    6.3142  -10.8118    0.4069 O   0  5
    0.6512    2.7844   -0.1904 O   0  0
   -2.1187   -0.1064    0.4481 O   0  0
    0.8996    0.3135   -6.0130 O   0  0
    0.1969   -5.0970    1.1871 O   0  0
    4.1856  -10.3877    0.0776 O   0  0
    1.3267   -2.0883   -2.3049 O   0  0
    2.0984   -1.6910   -4.4725 O   0  0
   -0.2303    1.7405   -2.0532 O   0  0
   -1.1121   -0.8043   -1.5106 O   0  0
    1.7818    1.1166   -4.0347 O   0  0
    1.5405   -3.8057   -0.1784 O   0  0
    5.9805   -2.2693   -6.7600 H   0  0
    6.5863   -4.2407   -5.4043 H   0  0
    8.5149   -7.2927   -1.9680 H   0  0
    7.8698   -9.2756   -0.6197 H   0  0
    3.8649   -1.0593   -6.3286 H   0  0
    2.9318   -3.8022   -3.1550 H   0  0
    3.6815   -8.4316   -1.2732 H   0  0
    1.6205    1.1273   -1.4713 H   0  0
   -0.0004    0.0130   -0.0050 H   0  0
    0.1516   -0.0940   -3.8664 H   0  0
    2.0891   -1.2829   -0.5645 H   0  0
    2.9371   -0.8744   -2.7968 H   0  0
   -0.8169    4.5334   -2.0335 H   0  0
   -1.5403    4.1936   -0.4233 H   0  0
   -2.0667    3.2849   -1.8544 H   0  0
   -3.8817   -0.2512   -1.8932 H   0  0
   -4.1244   -1.4424   -0.5691 H   0  0
   -3.1981   -1.8852   -2.0171 H   0  0
    1.8094    3.1026   -6.0813 H   0  0
    2.7399    1.8799   -7.0143 H   0  0
    3.2904    2.3927   -5.4066 H   0  0
    2.1018   -6.5965   -0.4664 H   0  0
    2.3687   -6.5498    1.3107 H   0  0
    3.2601   -5.4505    0.2393 H   0  0
   -0.3548   -3.1050   -0.5393 H   0  0
    0.4587   -2.4326    0.8975 H   0  0
    7.2703   -5.1493   -3.4608 H   0  0
  1  2  1  0
  1  5  2  0
  2  8  2  0
  3  4  2  0
  3 10  1  0
  4 11  1  0
  5 12  1  0
  6  8  1  0
  6 12  2  0
  7  9  1  0
  7 11  2  0
  8 13  1  0
  9 10  2  0
  9 28  1  0
 10 29  1  0
 11 30  1  0
 12 38  1  0
 13 28  2  0
 13 29  1  0
 14 23  1  0
 14 32  2  0
 14 39  1  0
 15 24  1  0
 15 33  2  0
 15 40  1  0
 16 25  1  0
 16 34  2  0
 16 41  1  0
 17 26  1  0
 17 35  2  0
 17 42  1  0
 18 19  1  0
 18 20  1  0
 18 39  1  0
 19 21  1  0
 19 40  1  0
 20 22  1  0
 20 41  1  0
 21 27  1  0
 21 37  1  0
 22 37  1  0
 22 38  1  0
 27 42  1  0
 30 31  1  0
 30 36  2  0
  1 43  1  0
  2 44  1  0
  3 45  1  0
  4 46  1  0
  5 47  1  0
  6 48  1  0
  7 49  1  0
 18 50  1  0
 19 51  1  0
 20 52  1  0
 21 53  1  0
 22 54  1  0
 23 55  1  0
 23 56  1  0
 23 57  1  0
 24 58  1  0
 24 59  1  0
 24 60  1  0
 25 61  1  0
 25 62  1  0
 25 63  1  0
 26 64  1  0
 26 65  1  0
 26 66  1  0
 27 67  1  0
 27 68  1  0
 29 69  1  0
M  CHG  2  30   1  31  -1
M  END
> <Name>
BR010705

$$$$
BR010706
  SciTegic05062102053D

 69 72  0  0  1  0            999 V2000
    5.3156   -2.6074   -5.9699 C   0  0
    4.7979   -4.1535   -4.1870 C   0  0
    9.7165   -6.4069   -4.4785 C   0  0
   10.7197   -6.8216   -5.3606 C   0  0
    4.1231   -1.9264   -5.7257 C   0  0
    3.6054   -3.4724   -3.9427 C   0  0
    9.6334   -5.7093   -7.2344 C   0  0
    5.6530   -3.7210   -5.2006 C   0  0
    8.6169   -5.2843   -6.3624 C   0  0
    8.6832   -5.6404   -5.0183 C   0  0
   10.6809   -6.4801   -6.7145 C   0  0
    3.2680   -2.3589   -4.7121 C   0  0
    6.8863   -4.4253   -5.4533 C   0  0
   -0.1514    2.7277   -1.1123 C   0  0
   -2.1676   -0.5982   -0.6712 C   0  0
    1.6033    1.0954   -5.3880 C   0  0
   -0.0513   -3.2307    2.0855 C   0  0
    0.7233    0.6893   -1.9268 C   0  0  1  0  0  0
    0.1626   -0.3970   -1.0083 C   0  0  2  0  0  0
    1.0679    0.1207   -3.3030 C   0  0  2  0  0  0
    1.1199   -1.5934   -0.9760 C   0  0  1  0  0  0
    1.9375   -1.1315   -3.1696 C   0  0  1  0  0  0
   -1.2083    3.7587   -1.3695 C   0  0
   -3.4304   -1.0693   -1.3265 C   0  0
    2.4078    2.1903   -6.0204 C   0  0
   -0.1861   -2.6172    3.4462 C   0  0
    0.5950   -2.7518   -0.1363 C   0  0
    7.4941   -4.5296   -6.6138 N   0  0
    7.5637   -5.0775   -4.4610 N   0  0
   11.7138   -6.9177   -7.5740 N   0  0
    0.6512    2.7844   -0.1904 O   0  0
   -2.1187   -0.1064    0.4481 O   0  0
    0.8996    0.3135   -6.0130 O   0  0
   -0.3267   -4.3949    1.8285 O   0  0
    1.3267   -2.0883   -2.3049 O   0  0
    2.0984   -1.6910   -4.4725 O   0  0
   -0.2303    1.7405   -2.0532 O   0  0
   -1.1121   -0.8043   -1.5106 O   0  0
    1.7818    1.1166   -4.0347 O   0  0
    0.4192   -2.3021    1.1952 O   0  0
    5.9716   -2.2579   -6.7637 H   0  0
    5.0468   -5.0198   -3.5786 H   0  0
    9.7442   -6.6709   -3.4273 H   0  0
   11.5417   -7.4204   -4.9732 H   0  0
    3.8656   -1.0596   -6.3283 H   0  0
    2.9433   -3.8140   -3.1517 H   0  0
    9.6018   -5.4431   -8.2865 H   0  0
    1.6205    1.1273   -1.4713 H   0  0
   -0.0004    0.0130   -0.0050 H   0  0
    0.1516   -0.0940   -3.8664 H   0  0
    2.0891   -1.2829   -0.5645 H   0  0
    2.9371   -0.8744   -2.7968 H   0  0
   -0.8169    4.5334   -2.0335 H   0  0
   -1.5403    4.1936   -0.4233 H   0  0
   -2.0667    3.2849   -1.8544 H   0  0
   -3.8817   -0.2512   -1.8932 H   0  0
   -4.1244   -1.4424   -0.5691 H   0  0
   -3.1981   -1.8852   -2.0171 H   0  0
    1.8094    3.1026   -6.0813 H   0  0
    2.7399    1.8799   -7.0143 H   0  0
    3.2904    2.3927   -5.4066 H   0  0
    0.7455   -2.7423    4.0034 H   0  0
   -1.0200   -3.0794    3.9806 H   0  0
   -0.3897   -1.5473    3.3430 H   0  0
    1.3108   -3.5747   -0.1460 H   0  0
   -0.3628   -3.0945   -0.5293 H   0  0
    7.2929   -5.1366   -3.4880 H   0  0
   12.4822   -7.4264   -7.1892 H   0  0
   11.7034   -6.6299   -8.5301 H   0  0
  1  5  1  0
  1  8  2  0
  2  6  2  0
  2  8  1  0
  3  4  2  0
  3 10  1  0
  4 11  1  0
  5 12  2  0
  6 12  1  0
  7  9  1  0
  7 11  2  0
  8 13  1  0
  9 10  2  0
  9 28  1  0
 10 29  1  0
 11 30  1  0
 12 36  1  0
 13 28  2  0
 13 29  1  0
 14 23  1  0
 14 31  2  0
 14 37  1  0
 15 24  1  0
 15 32  2  0
 15 38  1  0
 16 25  1  0
 16 33  2  0
 16 39  1  0
 17 26  1  0
 17 34  2  0
 17 40  1  0
 18 19  1  0
 18 20  1  0
 18 37  1  0
 19 21  1  0
 19 38  1  0
 20 22  1  0
 20 39  1  0
 21 27  1  0
 21 35  1  0
 22 35  1  0
 22 36  1  0
 27 40  1  0
  1 41  1  0
  2 42  1  0
  3 43  1  0
  4 44  1  0
  5 45  1  0
  6 46  1  0
  7 47  1  0
 18 48  1  0
 19 49  1  0
 20 50  1  0
 21 51  1  0
 22 52  1  0
 23 53  1  0
 23 54  1  0
 23 55  1  0
 24 56  1  0
 24 57  1  0
 24 58  1  0
 25 59  1  0
 25 60  1  0
 25 61  1  0
 26 62  1  0
 26 63  1  0
 26 64  1  0
 27 65  1  0
 27 66  1  0
 29 67  1  0
 30 68  1  0
 30 69  1  0
M  END
> <Name>
BR010706

$$$$
BR010707
  SciTegic05062102053D

 69 72  0  0  1  0            999 V2000
    5.3154   -2.6067   -5.9705 C   0  0
    5.6533   -3.7202   -5.2015 C   0  0
    7.4741   -7.5390   -1.8162 C   0  0
    7.0956   -8.6525   -1.0590 C   0  0
    4.1227   -1.9260   -5.7258 C   0  0
    3.6059   -3.4724   -3.9430 C   0  0
    4.7333   -8.1875   -1.4215 C   0  0
    4.7986   -4.1531   -4.1877 C   0  0
    5.0955   -7.0648   -2.1849 C   0  0
    6.4447   -6.7712   -2.3617 C   0  0
    5.7501   -8.9729   -0.8640 C   0  0
    3.2680   -2.3589   -4.7121 C   0  0
    5.1481   -5.3042   -3.3920 C   0  0
   -0.1514    2.7277   -1.1123 C   0  0
   -2.1676   -0.5982   -0.6712 C   0  0
    1.6033    1.0954   -5.3880 C   0  0
    1.2169   -4.9314    0.5319 C   0  0
    0.7233    0.6893   -1.9268 C   0  0  1  0  0  0
    0.1626   -0.3970   -1.0083 C   0  0  2  0  0  0
    1.0679    0.1207   -3.3030 C   0  0  2  0  0  0
    1.1199   -1.5934   -0.9760 C   0  0  1  0  0  0
    1.9375   -1.1315   -3.1696 C   0  0  1  0  0  0
   -1.2083    3.7587   -1.3695 C   0  0
   -3.4304   -1.0693   -1.3265 C   0  0
    2.4078    2.1903   -6.0204 C   0  0
    2.3025   -5.9557    0.3958 C   0  0
    0.5950   -2.7518   -0.1363 C   0  0
    4.3053   -6.1429   -2.8321 N   0  0
    6.4486   -5.6405   -3.1375 N   0  0
    5.4079  -10.1067   -0.0929 N   0  0
    0.6512    2.7844   -0.1904 O   0  0
   -2.1187   -0.1064    0.4481 O   0  0
    0.8996    0.3135   -6.0130 O   0  0
    0.1969   -5.0970    1.1871 O   0  0
    1.3267   -2.0883   -2.3049 O   0  0
    2.0984   -1.6910   -4.4725 O   0  0
   -0.2303    1.7405   -2.0532 O   0  0
   -1.1121   -0.8043   -1.5106 O   0  0
    1.7818    1.1166   -4.0347 O   0  0
    1.5405   -3.8057   -0.1784 O   0  0
    5.9805   -2.2693   -6.7600 H   0  0
    6.5863   -4.2407   -5.4043 H   0  0
    8.5177   -7.2881   -1.9688 H   0  0
    7.8729   -9.2744   -0.6194 H   0  0
    3.8649   -1.0593   -6.3286 H   0  0
    2.9318   -3.8022   -3.1550 H   0  0
    3.6870   -8.4351   -1.2706 H   0  0
    1.6205    1.1273   -1.4713 H   0  0
   -0.0004    0.0130   -0.0050 H   0  0
    0.1516   -0.0940   -3.8664 H   0  0
    2.0891   -1.2829   -0.5645 H   0  0
    2.9371   -0.8744   -2.7968 H   0  0
   -0.8169    4.5334   -2.0335 H   0  0
   -1.5403    4.1936   -0.4233 H   0  0
   -2.0667    3.2849   -1.8544 H   0  0
   -3.8817   -0.2512   -1.8932 H   0  0
   -4.1244   -1.4424   -0.5691 H   0  0
   -3.1981   -1.8852   -2.0171 H   0  0
    1.8094    3.1026   -6.0813 H   0  0
    2.7399    1.8799   -7.0143 H   0  0
    3.2904    2.3927   -5.4066 H   0  0
    2.1018   -6.5965   -0.4664 H   0  0
    2.3687   -6.5498    1.3107 H   0  0
    3.2601   -5.4505    0.2393 H   0  0
   -0.3548   -3.1050   -0.5393 H   0  0
    0.4587   -2.4326    0.8975 H   0  0
    7.2705   -5.1476   -3.4619 H   0  0
    6.1366  -10.6898    0.2622 H   0  0
    4.4455  -10.3557    0.0024 H   0  0
  1  2  1  0
  1  5  2  0
  2  8  2  0
  3  4  2  0
  3 10  1  0
  4 11  1  0
  5 12  1  0
  6  8  1  0
  6 12  2  0
  7  9  1  0
  7 11  2  0
  8 13  1  0
  9 10  2  0
  9 28  1  0
 10 29  1  0
 11 30  1  0
 12 36  1  0
 13 28  2  0
 13 29  1  0
 14 23  1  0
 14 31  2  0
 14 37  1  0
 15 24  1  0
 15 32  2  0
 15 38  1  0
 16 25  1  0
 16 33  2  0
 16 39  1  0
 17 26  1  0
 17 34  2  0
 17 40  1  0
 18 19  1  0
 18 20  1  0
 18 37  1  0
 19 21  1  0
 19 38  1  0
 20 22  1  0
 20 39  1  0
 21 27  1  0
 21 35  1  0
 22 35  1  0
 22 36  1  0
 27 40  1  0
  1 41  1  0
  2 42  1  0
  3 43  1  0
  4 44  1  0
  5 45  1  0
  6 46  1  0
  7 47  1  0
 18 48  1  0
 19 49  1  0
 20 50  1  0
 21 51  1  0
 22 52  1  0
 23 53  1  0
 23 54  1  0
 23 55  1  0
 24 56  1  0
 24 57  1  0
 24 58  1  0
 25 59  1  0
 25 60  1  0
 25 61  1  0
 26 62  1  0
 26 63  1  0
 26 64  1  0
 27 65  1  0
 27 66  1  0
 29 67  1  0
 30 68  1  0
 30 69  1  0
M  END
> <Name>
BR010707

$$$$
BR010708
  SciTegic05062102053D

105108  0  0  1  0            999 V2000
    4.5006   -3.9590   -6.0593 C   0  0
    4.7752   -4.0594   -3.6610 C   0  0
    9.2592   -7.0653   -4.1266 C   0  0
    9.8497   -8.1114   -4.8434 C   0  0
    3.4769   -3.0246   -5.9030 C   0  0
    3.7515   -3.1248   -3.5047 C   0  0
    8.0790   -8.0638   -6.5139 C   0  0
    5.1497   -4.4765   -4.9383 C   0  0
    7.4720   -7.0125   -5.8064 C   0  0
    8.0718   -6.5436   -4.6410 C   0  0
    9.2718   -8.6033   -6.0160 C   0  0
    3.1024   -2.6074   -4.6258 C   0  0
    6.2083   -5.4429   -5.0999 C   0  0
    1.1977    4.2108   -3.9873 C   0  0
   -0.3714    2.2539   -0.9824 C   0  0
    1.1908    0.1043   -6.6635 C   0  0
    2.7430    1.2832    1.9102 C   0  0
    9.8561   -9.8979   -8.1059 C   0  0
   10.0829  -12.4720   -7.9012 C   0  0
    9.6010   -8.9058  -10.4557 C   0  0
    1.7514    1.9422   -3.6259 C   0  0  1  0  0  0
    1.6322    1.7234   -2.1173 C   0  0  2  0  0  0
    1.5482    0.6332   -4.3883 C   0  0  2  0  0  0
    2.5653    0.5878   -1.6829 C   0  0  1  0  0  0
    2.4421   -0.4703   -3.8181 C   0  0  1  0  0  0
    0.0905    5.1083   -4.4507 C   0  0
   -1.7734    1.7766   -0.7528 C   0  0
    1.6459    0.4408   -8.0511 C   0  0
    3.1315    2.5742    2.5648 C   0  0
    9.0617  -15.0287   -7.1571 C   0  0
   10.2915  -15.8961   -9.1681 C   0  0
   11.5679  -14.8347   -7.2834 C   0  0
    8.1557   -8.4520  -12.8684 C   0  0
    9.1191   -6.1336  -12.7906 C   0  0
   10.6470   -8.1167  -12.9923 C   0  0
    2.4507    0.2591   -0.1992 C   0  0
   10.2633  -14.8261   -8.0789 C   0  0
    9.3347   -7.5962  -12.4078 C   0  0
    6.3157   -6.3167   -6.0756 N   0  0
    7.2421   -5.5401   -4.2106 N   0  0
    9.8994   -9.6615   -6.7119 N   0  0
    9.9452  -11.2180   -8.6025 N   0  0
    9.6687   -8.8389   -9.0191 N   0  3
    2.2949    4.6095   -3.6208 O   0  0
    0.0955    3.2714   -0.4888 O   0  0
    0.3252   -0.7219   -6.4077 O   0  0
    2.4283    0.2719    2.5227 O   0  0
   10.1418  -12.5125   -6.6788 O   0  0
    9.7026   -9.9424  -11.0982 O   0  0
    2.2514   -0.6063   -2.4105 O   0  0
    2.0984   -1.6910   -4.4725 O   0  0
    0.7897    2.9081   -4.0412 O   0  0
    0.2771    1.3865   -1.8120 O   0  0
    1.8844    0.8540   -5.7577 O   0  0
    2.7956    1.4123    0.5474 O   0  0
   10.1322  -13.5559   -8.7255 O   0  0
    9.4143   -7.6610  -10.9801 O   0  0
    4.7810   -4.2741   -7.0616 H   0  0
    5.2715   -4.4534   -2.7773 H   0  0
    9.7055   -6.6822   -3.2161 H   0  0
   10.7760   -8.5453   -4.4733 H   0  0
    2.9749   -2.6251   -6.7800 H   0  0
    3.4641   -2.8037   -2.5072 H   0  0
    7.6322   -8.4482   -7.4256 H   0  0
    2.7400    2.3575   -3.8590 H   0  0
    1.8616    2.6552   -1.5878 H   0  0
    0.4922    0.3377   -4.3625 H   0  0
    3.6072    0.8615   -1.8942 H   0  0
    3.4986   -0.2675   -4.0349 H   0  0
    0.1641    5.2610   -5.5303 H   0  0
    0.1413    6.0634   -3.9219 H   0  0
   -0.8728    4.6395   -4.2298 H   0  0
   -2.4379    2.1994   -1.5103 H   0  0
   -2.1022    2.0604    0.2502 H   0  0
   -1.8029    0.6860   -0.8326 H   0  0
    1.0411    1.2579   -8.4519 H   0  0
    1.5722   -0.4428   -8.6902 H   0  0
    2.6910    0.7625   -8.0220 H   0  0
    4.2106    2.5933    2.7359 H   0  0
    2.5897    2.6901    3.5069 H   0  0
    2.8679    3.4078    1.9074 H   0  0
    9.0379  -14.2626   -6.3738 H   0  0
    8.1177  -14.9898   -7.7104 H   0  0
    9.1218  -15.9948   -6.6429 H   0  0
   11.1521  -15.7546   -9.8319 H   0  0
    9.3993  -15.8319   -9.8015 H   0  0
   10.3433  -16.9038   -8.7434 H   0  0
   12.4299  -14.6893   -7.9444 H   0  0
   11.5806  -14.0489   -6.5211 H   0  0
   11.7166  -15.8016   -6.7893 H   0  0
    8.3066   -9.5026  -12.5955 H   0  0
    7.2131   -8.1104  -12.4284 H   0  0
    8.0572   -8.4272  -13.9597 H   0  0
    9.9627   -5.5159  -12.4620 H   0  0
    8.2287   -5.7280  -12.2966 H   0  0
    9.0011   -6.0122  -13.8722 H   0  0
   11.4929   -7.5030  -12.6621 H   0  0
   10.8366   -9.1539  -12.6974 H   0  0
   10.6346   -8.0627  -14.0869 H   0  0
    3.1326   -0.5523    0.0575 H   0  0
    1.4275   -0.0319    0.0412 H   0  0
    7.3761   -4.9749   -3.3823 H   0  0
   10.4210  -10.3495   -6.1555 H   0  0
    9.9058  -11.2973   -9.6187 H   0  0
    9.5176   -7.9092   -8.6321 H   0  0
  1  5  1  0
  1  8  2  0
  2  6  2  0
  2  8  1  0
  3  4  2  0
  3 10  1  0
  4 11  1  0
  5 12  2  0
  6 12  1  0
  7  9  1  0
  7 11  2  0
  8 13  1  0
  9 10  2  0
  9 39  1  0
 10 40  1  0
 11 41  1  0
 12 51  1  0
 13 39  2  0
 13 40  1  0
 14 26  1  0
 14 44  2  0
 14 52  1  0
 15 27  1  0
 15 45  2  0
 15 53  1  0
 16 28  1  0
 16 46  2  0
 16 54  1  0
 17 29  1  0
 17 47  2  0
 17 55  1  0
 18 41  1  0
 18 42  1  0
 18 43  2  0
 19 42  1  0
 19 48  2  0
 19 56  1  0
 20 43  1  0
 20 49  2  0
 20 57  1  0
 21 22  1  0
 21 23  1  0
 21 52  1  0
 22 24  1  0
 22 53  1  0
 23 25  1  0
 23 54  1  0
 24 36  1  0
 24 50  1  0
 25 50  1  0
 25 51  1  0
 30 37  1  0
 31 37  1  0
 32 37  1  0
 33 38  1  0
 34 38  1  0
 35 38  1  0
 36 55  1  0
 37 56  1  0
 38 57  1  0
  1 58  1  0
  2 59  1  0
  3 60  1  0
  4 61  1  0
  5 62  1  0
  6 63  1  0
  7 64  1  0
 21 65  1  0
 22 66  1  0
 23 67  1  0
 24 68  1  0
 25 69  1  0
 26 70  1  0
 26 71  1  0
 26 72  1  0
 27 73  1  0
 27 74  1  0
 27 75  1  0
 28 76  1  0
 28 77  1  0
 28 78  1  0
 29 79  1  0
 29 80  1  0
 29 81  1  0
 30 82  1  0
 30 83  1  0
 30 84  1  0
 31 85  1  0
 31 86  1  0
 31 87  1  0
 32 88  1  0
 32 89  1  0
 32 90  1  0
 33 91  1  0
 33 92  1  0
 33 93  1  0
 34 94  1  0
 34 95  1  0
 34 96  1  0
 35 97  1  0
 35 98  1  0
 35 99  1  0
 36100  1  0
 36101  1  0
 40102  1  0
 41103  1  0
 42104  1  0
 43105  1  0
M  CHG  1  43   1
M  END
> <Name>
BR010708

$$$$
BR010709
  SciTegic05062102053D

105108  0  0  1  0            999 V2000
    5.2263   -3.5205   -3.9241 C   0  0
    5.1504   -4.4759   -4.9375 C   0  0
    4.6305   -8.7075   -8.2819 C   0  0
    4.2000   -9.0964   -9.5547 C   0  0
    4.2022   -2.5863   -3.7682 C   0  0
    3.0265   -3.5629   -5.6392 C   0  0
    3.1360   -6.9395   -9.9339 C   0  0
    4.0505   -4.4971   -5.7951 C   0  0
    3.5603   -6.5322   -8.6578 C   0  0
    4.2904   -7.4183   -7.8707 C   0  0
    3.4659   -8.2297  -10.3677 C   0  0
    3.1024   -2.6074   -4.6258 C   0  0
    3.9716   -5.4854   -6.8427 C   0  0
   -3.8038   -1.3479   -3.5112 C   0  0
   -2.7430    0.6164   -6.7263 C   0  0
    0.8041   -1.1233   -1.8553 C   0  0
   -0.0390   -2.9135  -10.2218 C   0  0
    1.8884   -8.2446  -12.3416 C   0  0
    2.9176   -8.5530  -14.7005 C   0  0
   -0.5515   -7.4720  -12.1961 C   0  0
   -1.6478   -1.6469   -4.4309 C   0  0  1  0  0  0
   -1.8013   -1.4001   -5.9320 C   0  0  2  0  0  0
   -0.2164   -1.3694   -3.9724 C   0  0  2  0  0  0
   -0.7294   -2.1829   -6.6983 C   0  0  1  0  0  0
    0.7892   -2.1068   -4.8594 C   0  0  1  0  0  0
   -4.6522   -0.3708   -2.7551 C   0  0
   -2.4470    2.0715   -6.9290 C   0  0
    0.8420   -1.7068   -0.4754 C   0  0
    0.7038   -4.0924  -10.7738 C   0  0
    3.9213  -10.1967  -16.8040 C   0  0
    2.9100   -8.5013  -18.3571 C   0  0
    4.7382   -7.8162  -16.7770 C   0  0
   -3.3542   -7.8631  -12.5244 C   0  0
   -3.5943   -6.6060  -10.3631 C   0  0
   -2.5828   -5.4728  -12.3633 C   0  0
   -0.7703   -1.9314   -8.2009 C   0  0
    3.5306   -8.7301  -16.9807 C   0  0
   -2.7434   -6.7963  -11.6168 C   0  0
    3.3722   -5.3368   -8.0028 N   0  0
    4.5399   -6.7223   -6.7158 N   0  0
    3.0491   -8.6599  -11.6479 N   0  0
    1.8817   -8.2138  -13.7545 N   0  0
    0.7062   -7.9093  -11.6484 N   0  3
   -4.1887   -2.4505   -3.8763 O   0  0
   -3.8076    0.0870   -7.0152 O   0  0
    1.4747   -0.1642   -2.2124 O   0  0
   -0.5194   -2.0231  -10.9098 O   0  0
    4.0171   -8.9407  -14.3261 O   0  0
   -0.7641   -7.3289  -13.3927 O   0  0
    0.5736   -1.8044   -6.2371 O   0  0
    2.0984   -1.6910   -4.4725 O   0  0
   -2.5621   -0.8176   -3.7192 O   0  0
   -1.6554    0.0000   -6.1803 O   0  0
   -0.0803   -1.8220   -2.6257 O   0  0
   -0.0929   -2.9893   -8.8551 O   0  0
    2.5401   -8.4014  -16.0011 O   0  0
   -1.4499   -7.2423  -11.1964 O   0  0
    6.0825   -3.5035   -3.2561 H   0  0
    5.9566   -5.1974   -5.0466 H   0  0
    5.2000   -9.3785   -7.6489 H   0  0
    4.4448  -10.0948   -9.9105 H   0  0
    4.2673   -1.8442   -2.9769 H   0  0
    2.1644   -3.5704   -6.3032 H   0  0
    2.5652   -6.2680  -10.5680 H   0  0
   -1.9160   -2.6858   -4.2009 H   0  0
   -2.8104   -1.6827   -6.2533 H   0  0
   -0.0207   -0.2901   -3.9678 H   0  0
   -0.8614   -3.2590   -6.5269 H   0  0
    0.7285   -3.1909   -4.7001 H   0  0
   -4.5395   -0.5354   -1.6807 H   0  0
   -5.6979   -0.4785   -3.0540 H   0  0
   -4.3272    0.6475   -2.9877 H   0  0
   -2.7308    2.6355   -6.0371 H   0  0
   -2.9848    2.4408   -7.8059 H   0  0
   -1.3743    2.2033   -7.0982 H   0  0
    0.0968   -1.2159    0.1554 H   0  0
    1.8426   -1.5913   -0.0512 H   0  0
    0.6071   -2.7739   -0.5263 H   0  0
    1.7689   -3.8589  -10.8461 H   0  0
    0.3003   -4.3594  -11.7537 H   0  0
    0.5790   -4.9466  -10.1020 H   0  0
    4.3671  -10.3651  -15.8172 H   0  0
    3.0572  -10.8602  -16.9130 H   0  0
    4.6786  -10.4909  -17.5397 H   0  0
    2.6282   -7.4503  -18.4882 H   0  0
    1.9891   -9.0844  -18.4719 H   0  0
    3.5985   -8.7785  -19.1619 H   0  0
    4.4582   -6.7642  -16.9037 H   0  0
    5.1743   -7.9402  -15.7805 H   0  0
    5.5130   -8.0221  -17.5244 H   0  0
   -2.7463   -8.0027  -13.4255 H   0  0
   -3.4424   -8.8265  -12.0117 H   0  0
   -4.3504   -7.5610  -12.8673 H   0  0
   -3.1597   -5.8415   -9.7090 H   0  0
   -3.6339   -7.5296   -9.7743 H   0  0
   -4.6184   -6.3087  -10.6111 H   0  0
   -2.1447   -4.7074  -11.7125 H   0  0
   -1.9446   -5.5824  -13.2460 H   0  0
   -3.5568   -5.0855  -12.6837 H   0  0
   -0.2753   -0.9883   -8.4354 H   0  0
   -1.8042   -1.8986   -8.5464 H   0  0
    5.0541   -7.0670   -5.9156 H   0  0
    3.6267   -9.3655  -12.1208 H   0  0
    1.0049   -7.9022  -14.1723 H   0  0
    0.7086   -8.0253  -10.6367 H   0  0
  1  2  1  0
  1  5  2  0
  2  8  2  0
  3  4  2  0
  3 10  1  0
  4 11  1  0
  5 12  1  0
  6  8  1  0
  6 12  2  0
  7  9  1  0
  7 11  2  0
  8 13  1  0
  9 10  2  0
  9 39  1  0
 10 40  1  0
 11 41  1  0
 12 51  1  0
 13 39  2  0
 13 40  1  0
 14 26  1  0
 14 44  2  0
 14 52  1  0
 15 27  1  0
 15 45  2  0
 15 53  1  0
 16 28  1  0
 16 46  2  0
 16 54  1  0
 17 29  1  0
 17 47  2  0
 17 55  1  0
 18 41  1  0
 18 42  1  0
 18 43  2  0
 19 42  1  0
 19 48  2  0
 19 56  1  0
 20 43  1  0
 20 49  2  0
 20 57  1  0
 21 22  1  0
 21 23  1  0
 21 52  1  0
 22 24  1  0
 22 53  1  0
 23 25  1  0
 23 54  1  0
 24 36  1  0
 24 50  1  0
 25 50  1  0
 25 51  1  0
 30 37  1  0
 31 37  1  0
 32 37  1  0
 33 38  1  0
 34 38  1  0
 35 38  1  0
 36 55  1  0
 37 56  1  0
 38 57  1  0
  1 58  1  0
  2 59  1  0
  3 60  1  0
  4 61  1  0
  5 62  1  0
  6 63  1  0
  7 64  1  0
 21 65  1  0
 22 66  1  0
 23 67  1  0
 24 68  1  0
 25 69  1  0
 26 70  1  0
 26 71  1  0
 26 72  1  0
 27 73  1  0
 27 74  1  0
 27 75  1  0
 28 76  1  0
 28 77  1  0
 28 78  1  0
 29 79  1  0
 29 80  1  0
 29 81  1  0
 30 82  1  0
 30 83  1  0
 30 84  1  0
 31 85  1  0
 31 86  1  0
 31 87  1  0
 32 88  1  0
 32 89  1  0
 32 90  1  0
 33 91  1  0
 33 92  1  0
 33 93  1  0
 34 94  1  0
 34 95  1  0
 34 96  1  0
 35 97  1  0
 35 98  1  0
 35 99  1  0
 36100  1  0
 36101  1  0
 40102  1  0
 41103  1  0
 42104  1  0
 43105  1  0
M  CHG  1  43   1
M  END
> <Name>
BR010709

$$$$
BR010710
  SciTegic05062102053D

 75 78  0  0  1  0            999 V2000
    5.3156   -2.6074   -5.9699 C   0  0
    4.7979   -4.1535   -4.1870 C   0  0
    9.7169   -6.4067   -4.4793 C   0  0
   10.7200   -6.8212   -5.3617 C   0  0
    4.1231   -1.9264   -5.7257 C   0  0
    3.6054   -3.4724   -3.9427 C   0  0
    9.6332   -5.7088   -7.2351 C   0  0
    5.6530   -3.7210   -5.2006 C   0  0
    8.6168   -5.2840   -6.3628 C   0  0
    8.6834   -5.6402   -5.0188 C   0  0
   10.6809   -6.4795   -6.7155 C   0  0
    3.2680   -2.3589   -4.7121 C   0  0
    6.8863   -4.4253   -5.4533 C   0  0
   -0.1514    2.7277   -1.1123 C   0  0
   -2.1676   -0.5982   -0.6712 C   0  0
    1.6033    1.0954   -5.3880 C   0  0
   -0.0513   -3.2307    2.0855 C   0  0
   11.6016   -7.2025   -8.9499 C   0  0
    0.7233    0.6893   -1.9268 C   0  0  1  0  0  0
    0.1626   -0.3970   -1.0083 C   0  0  2  0  0  0
    1.0679    0.1207   -3.3030 C   0  0  2  0  0  0
    1.1199   -1.5934   -0.9760 C   0  0  1  0  0  0
    1.9375   -1.1315   -3.1696 C   0  0  1  0  0  0
   -1.2083    3.7587   -1.3695 C   0  0
   -3.4304   -1.0693   -1.3265 C   0  0
    2.4078    2.1903   -6.0204 C   0  0
   -0.1861   -2.6172    3.4462 C   0  0
    0.5950   -2.7518   -0.1363 C   0  0
    7.4939   -4.5294   -6.6139 N   0  0
    7.5640   -5.0776   -4.4612 N   0  0
   10.3803   -7.6700   -9.4377 N   0  0
   11.7138   -6.9175   -7.5753 N   0  0
   12.6624   -7.0883   -9.8427 N   0  3
    0.6512    2.7844   -0.1904 O   0  0
   -2.1187   -0.1064    0.4481 O   0  0
    0.8996    0.3135   -6.0130 O   0  0
   -0.3267   -4.3949    1.8285 O   0  0
    1.3267   -2.0883   -2.3049 O   0  0
    2.0984   -1.6910   -4.4725 O   0  0
   -0.2303    1.7405   -2.0532 O   0  0
   -1.1121   -0.8043   -1.5106 O   0  0
    1.7818    1.1166   -4.0347 O   0  0
    0.4192   -2.3021    1.1952 O   0  0
    5.9716   -2.2579   -6.7637 H   0  0
    5.0468   -5.0198   -3.5786 H   0  0
    9.7449   -6.6710   -3.4283 H   0  0
   11.5423   -7.4215   -4.9787 H   0  0
    3.8656   -1.0596   -6.3283 H   0  0
    2.9433   -3.8140   -3.1517 H   0  0
    9.6054   -5.4448   -8.2878 H   0  0
    1.6205    1.1273   -1.4713 H   0  0
   -0.0004    0.0130   -0.0050 H   0  0
    0.1516   -0.0940   -3.8664 H   0  0
    2.0891   -1.2829   -0.5645 H   0  0
    2.9371   -0.8744   -2.7968 H   0  0
   -0.8169    4.5334   -2.0335 H   0  0
   -1.5403    4.1936   -0.4233 H   0  0
   -2.0667    3.2849   -1.8544 H   0  0
   -3.8817   -0.2512   -1.8932 H   0  0
   -4.1244   -1.4424   -0.5691 H   0  0
   -3.1981   -1.8852   -2.0171 H   0  0
    1.8094    3.1026   -6.0813 H   0  0
    2.7399    1.8799   -7.0143 H   0  0
    3.2904    2.3927   -5.4066 H   0  0
    0.7455   -2.7423    4.0034 H   0  0
   -1.0200   -3.0794    3.9806 H   0  0
   -0.3897   -1.5473    3.3430 H   0  0
    1.3108   -3.5747   -0.1460 H   0  0
   -0.3628   -3.0945   -0.5293 H   0  0
    7.2930   -5.1368   -3.4883 H   0  0
    9.5826   -7.8036   -8.8209 H   0  0
   10.2547   -7.8869  -10.4235 H   0  0
   12.6575   -7.0085   -7.1782 H   0  0
   12.5560   -7.3765  -10.8128 H   0  0
   13.5910   -6.7954   -9.5548 H   0  0
  1  5  1  0
  1  8  2  0
  2  6  2  0
  2  8  1  0
  3  4  2  0
  3 10  1  0
  4 11  1  0
  5 12  2  0
  6 12  1  0
  7  9  1  0
  7 11  2  0
  8 13  1  0
  9 10  2  0
  9 29  1  0
 10 30  1  0
 11 32  1  0
 12 39  1  0
 13 29  2  0
 13 30  1  0
 14 24  1  0
 14 34  2  0
 14 40  1  0
 15 25  1  0
 15 35  2  0
 15 41  1  0
 16 26  1  0
 16 36  2  0
 16 42  1  0
 17 27  1  0
 17 37  2  0
 17 43  1  0
 18 31  1  0
 18 32  1  0
 18 33  2  0
 19 20  1  0
 19 21  1  0
 19 40  1  0
 20 22  1  0
 20 41  1  0
 21 23  1  0
 21 42  1  0
 22 28  1  0
 22 38  1  0
 23 38  1  0
 23 39  1  0
 28 43  1  0
  1 44  1  0
  2 45  1  0
  3 46  1  0
  4 47  1  0
  5 48  1  0
  6 49  1  0
  7 50  1  0
 19 51  1  0
 20 52  1  0
 21 53  1  0
 22 54  1  0
 23 55  1  0
 24 56  1  0
 24 57  1  0
 24 58  1  0
 25 59  1  0
 25 60  1  0
 25 61  1  0
 26 62  1  0
 26 63  1  0
 26 64  1  0
 27 65  1  0
 27 66  1  0
 27 67  1  0
 28 68  1  0
 28 69  1  0
 30 70  1  0
 31 71  1  0
 31 72  1  0
 32 73  1  0
 33 74  1  0
 33 75  1  0
M  CHG  1  33   1
M  END
> <Name>
BR010710

$$$$
BR010711
  SciTegic05062102053D

 75 78  0  0  1  0            999 V2000
    5.3154   -2.6067   -5.9705 C   0  0
    5.6533   -3.7202   -5.2015 C   0  0
    7.4734   -7.5396   -1.8160 C   0  0
    7.0945   -8.6531   -1.0590 C   0  0
    4.1227   -1.9260   -5.7258 C   0  0
    3.6059   -3.4724   -3.9430 C   0  0
    4.7324   -8.1875   -1.4217 C   0  0
    4.7986   -4.1531   -4.1877 C   0  0
    5.0950   -7.0649   -2.1850 C   0  0
    6.4443   -6.7716   -2.3616 C   0  0
    5.7489   -8.9732   -0.8641 C   0  0
    3.2680   -2.3589   -4.7121 C   0  0
    5.1481   -5.3042   -3.3920 C   0  0
   -0.1514    2.7277   -1.1123 C   0  0
   -2.1676   -0.5982   -0.6712 C   0  0
    1.6033    1.0954   -5.3880 C   0  0
    1.2169   -4.9314    0.5319 C   0  0
    4.2459  -10.2765    0.6867 C   0  0
    0.7233    0.6893   -1.9268 C   0  0  1  0  0  0
    0.1626   -0.3970   -1.0083 C   0  0  2  0  0  0
    1.0679    0.1207   -3.3030 C   0  0  2  0  0  0
    1.1199   -1.5934   -0.9760 C   0  0  1  0  0  0
    1.9375   -1.1315   -3.1696 C   0  0  1  0  0  0
   -1.2083    3.7587   -1.3695 C   0  0
   -3.4304   -1.0693   -1.3265 C   0  0
    2.4078    2.1903   -6.0204 C   0  0
    2.3025   -5.9557    0.3958 C   0  0
    0.5950   -2.7518   -0.1363 C   0  0
    4.3050   -6.1427   -2.8323 N   0  0
    6.4485   -5.6408   -3.1374 N   0  0
    3.6524   -9.1485    1.2553 N   0  0
    5.4066  -10.1070   -0.0927 N   0  0
    3.6849  -11.5197    0.9611 N   0  3
    0.6512    2.7844   -0.1904 O   0  0
   -2.1187   -0.1064    0.4481 O   0  0
    0.8996    0.3135   -6.0130 O   0  0
    0.1969   -5.0970    1.1871 O   0  0
    1.3267   -2.0883   -2.3049 O   0  0
    2.0984   -1.6910   -4.4725 O   0  0
   -0.2303    1.7405   -2.0532 O   0  0
   -1.1121   -0.8043   -1.5106 O   0  0
    1.7818    1.1166   -4.0347 O   0  0
    1.5405   -3.8057   -0.1784 O   0  0
    5.9805   -2.2693   -6.7600 H   0  0
    6.5863   -4.2407   -5.4043 H   0  0
    8.5171   -7.2890   -1.9684 H   0  0
    7.8685   -9.2762   -0.6162 H   0  0
    3.8649   -1.0593   -6.3286 H   0  0
    2.9318   -3.8022   -3.1550 H   0  0
    3.6873   -8.4387   -1.2685 H   0  0
    1.6205    1.1273   -1.4713 H   0  0
   -0.0004    0.0130   -0.0050 H   0  0
    0.1516   -0.0940   -3.8664 H   0  0
    2.0891   -1.2829   -0.5645 H   0  0
    2.9371   -0.8744   -2.7968 H   0  0
   -0.8169    4.5334   -2.0335 H   0  0
   -1.5403    4.1936   -0.4233 H   0  0
   -2.0667    3.2849   -1.8544 H   0  0
   -3.8817   -0.2512   -1.8932 H   0  0
   -4.1244   -1.4424   -0.5691 H   0  0
   -3.1981   -1.8852   -2.0171 H   0  0
    1.8094    3.1026   -6.0813 H   0  0
    2.7399    1.8799   -7.0143 H   0  0
    3.2904    2.3927   -5.4066 H   0  0
    2.1018   -6.5965   -0.4664 H   0  0
    2.3687   -6.5498    1.3107 H   0  0
    3.2601   -5.4505    0.2393 H   0  0
   -0.3548   -3.1050   -0.5393 H   0  0
    0.4587   -2.4326    0.8975 H   0  0
    7.2703   -5.1478   -3.4616 H   0  0
    4.0423   -8.2197    1.1137 H   0  0
    2.8125   -9.2248    1.8240 H   0  0
    6.0441  -10.9128   -0.1214 H   0  0
    2.8896  -11.6013    1.5906 H   0  0
    4.0840  -12.3880    0.6182 H   0  0
  1  2  1  0
  1  5  2  0
  2  8  2  0
  3  4  2  0
  3 10  1  0
  4 11  1  0
  5 12  1  0
  6  8  1  0
  6 12  2  0
  7  9  1  0
  7 11  2  0
  8 13  1  0
  9 10  2  0
  9 29  1  0
 10 30  1  0
 11 32  1  0
 12 39  1  0
 13 29  2  0
 13 30  1  0
 14 24  1  0
 14 34  2  0
 14 40  1  0
 15 25  1  0
 15 35  2  0
 15 41  1  0
 16 26  1  0
 16 36  2  0
 16 42  1  0
 17 27  1  0
 17 37  2  0
 17 43  1  0
 18 31  1  0
 18 32  1  0
 18 33  2  0
 19 20  1  0
 19 21  1  0
 19 40  1  0
 20 22  1  0
 20 41  1  0
 21 23  1  0
 21 42  1  0
 22 28  1  0
 22 38  1  0
 23 38  1  0
 23 39  1  0
 28 43  1  0
  1 44  1  0
  2 45  1  0
  3 46  1  0
  4 47  1  0
  5 48  1  0
  6 49  1  0
  7 50  1  0
 19 51  1  0
 20 52  1  0
 21 53  1  0
 22 54  1  0
 23 55  1  0
 24 56  1  0
 24 57  1  0
 24 58  1  0
 25 59  1  0
 25 60  1  0
 25 61  1  0
 26 62  1  0
 26 63  1  0
 26 64  1  0
 27 65  1  0
 27 66  1  0
 27 67  1  0
 28 68  1  0
 28 69  1  0
 30 70  1  0
 31 71  1  0
 31 72  1  0
 32 73  1  0
 33 74  1  0
 33 75  1  0
M  CHG  1  33   1
M  END
> <Name>
BR010711

$$$$
BR010712
  SciTegic05062102053D

 55 58  0  0  1  0            999 V2000
    4.5006   -3.9590   -6.0593 C   0  0
    4.7752   -4.0594   -3.6610 C   0  0
    8.1919   -8.2464   -4.0545 C   0  0
    9.2472   -8.7780   -4.8031 C   0  0
    3.4769   -3.0246   -5.9030 C   0  0
    3.7515   -3.1248   -3.5047 C   0  0
    8.9159   -7.1375   -6.5714 C   0  0
    5.1497   -4.4765   -4.9383 C   0  0
    7.8529   -6.5908   -5.8328 C   0  0
    7.5205   -7.1537   -4.6038 C   0  0
    9.6045   -8.2350   -6.0394 C   0  0
    3.1024   -2.6074   -4.6258 C   0  0
    6.2083   -5.4429   -5.0999 C   0  0
   10.8238   -8.8295   -8.1661 C   0  0
   -1.3303   -1.3573   -2.9995 C   0  0  1  0  0  0
   -1.8800   -2.6354   -3.6338 C   0  0  2  0  0  0
   -0.0192   -0.9354   -3.6619 C   0  0  2  0  0  0
   -0.7966   -3.7195   -3.6376 C   0  0  1  0  0  0
    0.9620   -2.1086   -3.7171 C   0  0  1  0  0  0
   -1.2452   -5.0054   -4.3214 C   0  0
    7.0272   -5.5293   -6.1241 N   0  0
    6.4655   -6.3997   -4.1578 N   0  0
    9.6748   -8.8656   -8.9575 N   0  0
   10.6771   -8.8006   -6.7657 N   0  0
   12.0595   -8.8732   -8.8038 N   0  3
    0.3631   -3.2471   -4.3345 O   0  0
   -2.2976   -0.3175   -3.1161 O   0  0
   -2.2825   -2.3418   -4.9735 O   0  0
    0.5521    0.1232   -2.8938 O   0  0
   -0.4032   -6.0617   -3.8954 O   0  0
    2.0984   -1.6910   -4.4725 O   0  0
    4.7810   -4.2741   -7.0616 H   0  0
    5.2715   -4.4534   -2.7773 H   0  0
    7.9126   -8.6664   -3.0949 H   0  0
    9.7945   -9.6313   -4.4085 H   0  0
    2.9749   -2.6251   -6.7800 H   0  0
    3.4641   -2.8037   -2.5072 H   0  0
    9.1959   -6.7174   -7.5326 H   0  0
   -1.1678   -1.5211   -1.9266 H   0  0
   -2.7739   -2.9641   -3.0915 H   0  0
   -0.2111   -0.5347   -4.6648 H   0  0
   -0.5094   -3.9616   -2.6061 H   0  0
    1.3143   -2.3702   -2.7113 H   0  0
   -1.1685   -4.8992   -5.4041 H   0  0
   -2.2757   -5.2346   -4.0476 H   0  0
    5.9698   -6.5314   -3.2857 H   0  0
    8.7472   -8.8696   -8.5403 H   0  0
    9.7345   -8.8859   -9.9727 H   0  0
   11.4547   -9.2054   -6.2290 H   0  0
   12.1170   -8.9690   -9.8152 H   0  0
   12.9378   -8.8926   -8.2948 H   0  0
   -3.0902   -0.6235   -2.6484 H   0  0
   -2.6237   -3.1697   -5.3426 H   0  0
    0.7021   -0.2329   -2.0051 H   0  0
   -0.7088   -6.8684   -4.3440 H   0  0
  1  5  1  0
  1  8  2  0
  2  6  2  0
  2  8  1  0
  3  4  2  0
  3 10  1  0
  4 11  1  0
  5 12  2  0
  6 12  1  0
  7  9  1  0
  7 11  2  0
  8 13  1  0
  9 10  2  0
  9 21  1  0
 10 22  1  0
 11 24  1  0
 12 31  1  0
 13 21  2  0
 13 22  1  0
 14 23  1  0
 14 24  1  0
 14 25  2  0
 15 16  1  0
 15 17  1  0
 15 27  1  0
 16 18  1  0
 16 28  1  0
 17 19  1  0
 17 29  1  0
 18 20  1  0
 18 26  1  0
 19 26  1  0
 19 31  1  0
 20 30  1  0
  1 32  1  0
  2 33  1  0
  3 34  1  0
  4 35  1  0
  5 36  1  0
  6 37  1  0
  7 38  1  0
 15 39  1  0
 16 40  1  0
 17 41  1  0
 18 42  1  0
 19 43  1  0
 20 44  1  0
 20 45  1  0
 22 46  1  0
 23 47  1  0
 23 48  1  0
 24 49  1  0
 25 50  1  0
 25 51  1  0
 27 52  1  0
 28 53  1  0
 29 54  1  0
 30 55  1  0
M  CHG  1  25   1
M  END
> <Name>
BR010712

$$$$
BR010713
  SciTegic05062102053D

 55 58  0  0  1  0            999 V2000
    5.2263   -3.5205   -3.9241 C   0  0
    5.1504   -4.4759   -4.9375 C   0  0
    2.2051   -7.6631   -9.0843 C   0  0
    2.8313   -8.5063  -10.0081 C   0  0
    4.2022   -2.5863   -3.7682 C   0  0
    3.0265   -3.5629   -5.6392 C   0  0
    5.0389   -7.7576   -9.3056 C   0  0
    4.0505   -4.4971   -5.7951 C   0  0
    4.4267   -6.9044   -8.3720 C   0  0
    3.0376   -6.8787   -8.2853 C   0  0
    4.2229   -8.5544  -10.1185 C   0  0
    3.1024   -2.6074   -4.6258 C   0  0
    3.9716   -5.4854   -6.8427 C   0  0
    6.0421   -9.2240  -11.7324 C   0  0
   -1.4081   -1.5975   -3.1560 C   0  0  1  0  0  0
   -2.0686   -1.9334   -4.4935 C   0  0  2  0  0  0
    0.0495   -1.1818   -3.3524 C   0  0  2  0  0  0
   -1.2157   -2.9578   -5.2500 C   0  0  1  0  0  0
    0.7955   -2.2091   -4.2069 C   0  0  1  0  0  0
   -1.7715   -3.2910   -6.6293 C   0  0
    4.9895   -6.0327   -7.4683 N   0  0
    2.7746   -5.9626   -7.2994 N   0  0
    6.4608   -7.9179  -11.9904 N   0  0
    4.8178   -9.4199  -11.0644 N   0  0
    6.8363  -10.2690  -12.1937 N   0  3
    0.1100   -2.4463   -5.4357 O   0  0
   -2.1365   -0.5521   -2.5181 O   0  0
   -2.1827   -0.7318   -5.2591 O   0  0
    0.6687   -1.0945   -2.0694 O   0  0
   -1.2189   -4.5241   -7.0538 O   0  0
    2.0984   -1.6910   -4.4725 O   0  0
    6.0825   -3.5035   -3.2561 H   0  0
    5.9566   -5.1974   -5.0466 H   0  0
    1.1253   -7.6238   -8.9971 H   0  0
    2.2157   -9.1328  -10.6499 H   0  0
    4.2673   -1.8442   -2.9769 H   0  0
    2.1644   -3.5704   -6.3032 H   0  0
    6.1204   -7.7971   -9.3936 H   0  0
   -1.4586   -2.4704   -2.4929 H   0  0
   -3.0849   -2.3063   -4.3224 H   0  0
    0.1031   -0.1824   -3.8014 H   0  0
   -1.1528   -3.8886   -4.6715 H   0  0
    0.9222   -3.1524   -3.6607 H   0  0
   -1.4981   -2.5109   -7.3407 H   0  0
   -2.8574   -3.3807   -6.5831 H   0  0
    1.8565   -5.6923   -6.9714 H   0  0
    5.9007   -7.1185  -11.7044 H   0  0
    7.3387   -7.7306  -12.4689 H   0  0
    4.3359  -10.3041  -11.2702 H   0  0
    7.6756  -10.0806  -12.7372 H   0  0
    6.5773  -11.2443  -12.0809 H   0  0
   -3.0380   -0.8841   -2.3858 H   0  0
   -2.6030   -0.9809   -6.0954 H   0  0
    0.6015   -1.9760   -1.6722 H   0  0
   -1.5877   -4.7139   -7.9332 H   0  0
  1  2  1  0
  1  5  2  0
  2  8  2  0
  3  4  2  0
  3 10  1  0
  4 11  1  0
  5 12  1  0
  6  8  1  0
  6 12  2  0
  7  9  1  0
  7 11  2  0
  8 13  1  0
  9 10  2  0
  9 21  1  0
 10 22  1  0
 11 24  1  0
 12 31  1  0
 13 21  2  0
 13 22  1  0
 14 23  1  0
 14 24  1  0
 14 25  2  0
 15 16  1  0
 15 17  1  0
 15 27  1  0
 16 18  1  0
 16 28  1  0
 17 19  1  0
 17 29  1  0
 18 20  1  0
 18 26  1  0
 19 26  1  0
 19 31  1  0
 20 30  1  0
  1 32  1  0
  2 33  1  0
  3 34  1  0
  4 35  1  0
  5 36  1  0
  6 37  1  0
  7 38  1  0
 15 39  1  0
 16 40  1  0
 17 41  1  0
 18 42  1  0
 19 43  1  0
 20 44  1  0
 20 45  1  0
 22 46  1  0
 23 47  1  0
 23 48  1  0
 24 49  1  0
 25 50  1  0
 25 51  1  0
 27 52  1  0
 28 53  1  0
 29 54  1  0
 30 55  1  0
M  CHG  1  25   1
M  END
> <Name>
BR010713

$$$$
BR010714
  SciTegic05062102053D

 49 51  0  0  1  0            999 V2000
    3.7342   -6.0590    0.2990 C   0  0
    5.4085   -0.4922    4.2321 C   0  0
    4.1266   -7.2622    0.8854 C   0  0
    6.6279   -0.6439    4.8921 C   0  0
    6.0509   -5.4083    0.0835 C   0  0
    5.4476   -2.8297    3.6226 C   0  0
    4.6963   -5.1320   -0.1020 C   0  0
    4.8183   -1.5851    3.5973 C   0  0
    5.4812   -7.5384    1.0709 C   0  0
    7.2572   -1.8885    4.9174 C   0  0
    6.4434   -6.6115    0.6700 C   0  0
    6.6670   -2.9814    4.2826 C   0  0
    4.2776   -3.8506   -0.7264 C   0  0
    3.5196   -1.4227    2.8944 C   0  0
    1.0862   -0.6492   -1.7589 C   0  0  1  0  0  0
    0.9120    0.2500   -0.5554 C   0  0  1  0  0  0
    1.6753   -1.8958   -1.1176 C   0  0  1  0  0  0
    2.1741   -0.0595    0.2341 C   0  0  1  0  0  0
    2.5306   -2.7117   -2.0705 C   0  0
    2.0174    0.1698    1.7268 C   0  0
    3.0556   -3.8572   -1.4006 N   0  0
    3.2335   -0.1484    2.4025 N   0  0
    5.0156   -2.8726   -0.6417 O   0  0
    2.7651   -2.3870    2.7975 O   0  0
    2.4782   -1.4431   -0.0137 O   0  0
   -0.1468   -0.9380   -2.3894 O   0  0
    0.8624    1.6171   -0.9163 O   0  0
    5.9026   -9.0472    1.8022 Cl  0  0
    8.7657   -2.0113    5.7528 Cl  0  0
    8.1363   -6.8973    0.8732 Cl  0  0
    7.3982   -4.5480    4.2799 Cl  0  0
    2.6759   -5.8533    0.1587 H   0  0
    4.9262    0.4820    4.2184 H   0  0
    3.3633   -7.9732    1.1915 H   0  0
    7.0733    0.2186    5.3818 H   0  0
    6.7964   -4.6812   -0.2315 H   0  0
    4.9820   -3.6782    3.1257 H   0  0
    1.7605   -0.1975   -2.4963 H   0  0
   -0.0021   -0.0006   -0.0032 H   0  0
    0.8834   -2.5384   -0.7116 H   0  0
    3.0192    0.5382   -0.1307 H   0  0
    3.3545   -2.0998   -2.4220 H   0  0
    1.9245   -3.0401   -2.9078 H   0  0
    1.2263   -0.4696    2.1039 H   0  0
    1.7755    1.2112    1.9081 H   0  0
    2.5361   -4.7356   -1.4735 H   0  0
    3.8942    0.6114    2.5843 H   0  0
   -0.7075   -1.3839   -1.7313 H   0  0
    1.7033    1.8274   -1.3579 H   0  0
  1  3  2  0
  1  7  1  0
  2  4  2  0
  2  8  1  0
  3  9  1  0
  4 10  1  0
  5  7  2  0
  5 11  1  0
  6  8  2  0
  6 12  1  0
  7 13  1  0
  8 14  1  0
  9 11  2  0
  9 28  1  0
 10 12  2  0
 10 29  1  0
 11 30  1  0
 12 31  1  0
 13 21  1  0
 13 23  2  0
 14 22  1  0
 14 24  2  0
 15 16  1  0
 15 17  1  0
 15 26  1  0
 16 18  1  0
 16 27  1  0
 17 19  1  0
 17 25  1  0
 18 20  1  0
 18 25  1  0
 19 21  1  0
 20 22  1  0
  1 32  1  0
  2 33  1  0
  3 34  1  0
  4 35  1  0
  5 36  1  0
  6 37  1  0
 15 38  1  0
 16 39  1  0
 17 40  1  0
 18 41  1  0
 19 42  1  0
 19 43  1  0
 20 44  1  0
 20 45  1  0
 21 46  1  0
 22 47  1  0
 26 48  1  0
 27 49  1  0
M  END
> <Name>
BR010714

$$$$
BR010715
  SciTegic05062102053D

 53 55  0  0  1  0            999 V2000
    4.1271   -7.1613   -1.5510 C   0  0
    5.4026    0.4322    5.0569 C   0  0
    4.6828   -8.2120   -0.8210 C   0  0
    6.5857    0.0212    5.6708 C   0  0
    5.6216   -5.6104   -0.4563 C   0  0
    4.8076   -1.8752    4.6586 C   0  0
    4.5966   -5.8605   -1.3687 C   0  0
    4.5135   -0.5160    4.5508 C   0  0
    5.7078   -7.9619    0.0914 C   0  0
    6.8798   -1.3380    5.7785 C   0  0
    6.1772   -6.6611    0.2737 C   0  0
    5.9908   -2.2863    5.2724 C   0  0
    1.0862   -0.6492   -1.7589 C   0  0  1  0  0  0
    0.9120    0.2500   -0.5554 C   0  0  1  0  0  0
    1.6753   -1.8958   -1.1176 C   0  0  1  0  0  0
    2.1741   -0.0595    0.2341 C   0  0  1  0  0  0
    3.9978   -4.7313   -2.1544 C   0  0
    3.2414   -0.0724    3.8906 C   0  0
    2.5306   -2.7117   -2.0705 C   0  0
    2.0174    0.1698    1.7268 C   0  0
    3.0878   -3.8742   -1.3439 N   0  3
    3.2796   -0.1973    2.4064 N   0  3
    2.4782   -1.4431   -0.0137 O   0  0
   -0.1468   -0.9380   -2.3894 O   0  0
    0.8624    1.6171   -0.9163 O   0  0
    6.3544   -9.3058    0.9659 Cl  0  0
    8.3619   -1.7837    6.5492 Cl  0  0
    7.4445   -6.2877    1.3889 Cl  0  0
    6.2989   -3.9844    5.3756 Cl  0  0
    3.3281   -7.3652   -2.2593 H   0  0
    5.1818    1.4936    4.9766 H   0  0
    4.3044   -9.2195   -0.9758 H   0  0
    7.2671    0.7741    6.0594 H   0  0
    5.9819   -4.5931   -0.3203 H   0  0
    4.1088   -2.6081    4.2613 H   0  0
    1.7605   -0.1975   -2.4963 H   0  0
   -0.0021   -0.0006   -0.0032 H   0  0
    0.8834   -2.5384   -0.7116 H   0  0
    3.0192    0.5382   -0.1307 H   0  0
    4.7752   -4.0726   -2.5563 H   0  0
    3.4085   -5.1056   -2.9985 H   0  0
    2.3885   -0.6674    4.2344 H   0  0
    3.0262    0.9785    4.1124 H   0  0
    3.3735   -2.1301   -2.4481 H   0  0
    1.9408   -3.1010   -2.9024 H   0  0
    1.2284   -0.4571    2.1462 H   0  0
    1.8214    1.2199    1.9508 H   0  0
    2.3165   -4.4568   -0.9837 H   0  0
    3.5972   -3.5463   -0.5088 H   0  0
    4.0483    0.3874    2.0438 H   0  0
    3.5332   -1.1668    2.1615 H   0  0
   -0.7075   -1.3839   -1.7313 H   0  0
    1.7033    1.8274   -1.3579 H   0  0
  1  3  2  0
  1  7  1  0
  2  4  2  0
  2  8  1  0
  3  9  1  0
  4 10  1  0
  5  7  2  0
  5 11  1  0
  6  8  2  0
  6 12  1  0
  7 17  1  0
  8 18  1  0
  9 11  2  0
  9 26  1  0
 10 12  2  0
 10 27  1  0
 11 28  1  0
 12 29  1  0
 13 14  1  0
 13 15  1  0
 13 24  1  0
 14 16  1  0
 14 25  1  0
 15 19  1  0
 15 23  1  0
 16 20  1  0
 16 23  1  0
 17 21  1  0
 18 22  1  0
 19 21  1  0
 20 22  1  0
  1 30  1  0
  2 31  1  0
  3 32  1  0
  4 33  1  0
  5 34  1  0
  6 35  1  0
 13 36  1  0
 14 37  1  0
 15 38  1  0
 16 39  1  0
 17 40  1  0
 17 41  1  0
 18 42  1  0
 18 43  1  0
 19 44  1  0
 19 45  1  0
 20 46  1  0
 20 47  1  0
 21 48  1  0
 21 49  1  0
 22 50  1  0
 22 51  1  0
 24 52  1  0
 25 53  1  0
M  CHG  2  21   1  22   1
M  END
> <Name>
BR010715

$$$$
BR010716
  SciTegic05062102053D

 51 53  0  0  1  0            999 V2000
    3.7342   -6.0590    0.2990 C   0  0
    5.4026    0.4322    5.0569 C   0  0
    4.1266   -7.2622    0.8854 C   0  0
    6.5857    0.0212    5.6708 C   0  0
    6.0509   -5.4083    0.0835 C   0  0
    4.8076   -1.8752    4.6586 C   0  0
    4.6963   -5.1320   -0.1020 C   0  0
    4.5135   -0.5160    4.5508 C   0  0
    5.4812   -7.5384    1.0709 C   0  0
    6.8798   -1.3380    5.7785 C   0  0
    6.4434   -6.6115    0.6700 C   0  0
    5.9908   -2.2863    5.2724 C   0  0
    4.2776   -3.8506   -0.7264 C   0  0
    1.0862   -0.6492   -1.7589 C   0  0  1  0  0  0
    0.9120    0.2500   -0.5554 C   0  0  1  0  0  0
    1.6753   -1.8958   -1.1176 C   0  0  1  0  0  0
    2.1741   -0.0595    0.2341 C   0  0  1  0  0  0
    3.2414   -0.0724    3.8906 C   0  0
    2.5306   -2.7117   -2.0705 C   0  0
    2.0174    0.1698    1.7268 C   0  0
    3.0556   -3.8572   -1.4006 N   0  0
    3.2796   -0.1973    2.4064 N   0  3
    5.0156   -2.8726   -0.6417 O   0  0
    2.4782   -1.4431   -0.0137 O   0  0
   -0.1468   -0.9380   -2.3894 O   0  0
    0.8624    1.6171   -0.9163 O   0  0
    5.9026   -9.0472    1.8022 Cl  0  0
    8.3619   -1.7837    6.5492 Cl  0  0
    8.1363   -6.8973    0.8732 Cl  0  0
    6.2989   -3.9844    5.3756 Cl  0  0
    2.6759   -5.8533    0.1587 H   0  0
    5.1818    1.4936    4.9766 H   0  0
    3.3633   -7.9732    1.1915 H   0  0
    7.2671    0.7741    6.0594 H   0  0
    6.7964   -4.6812   -0.2315 H   0  0
    4.1088   -2.6081    4.2613 H   0  0
    1.7605   -0.1975   -2.4963 H   0  0
   -0.0021   -0.0006   -0.0032 H   0  0
    0.8834   -2.5384   -0.7116 H   0  0
    3.0192    0.5382   -0.1307 H   0  0
    2.3885   -0.6674    4.2344 H   0  0
    3.0262    0.9785    4.1124 H   0  0
    3.3545   -2.0998   -2.4220 H   0  0
    1.9245   -3.0401   -2.9078 H   0  0
    1.2284   -0.4571    2.1462 H   0  0
    1.8214    1.2199    1.9508 H   0  0
    2.5361   -4.7356   -1.4735 H   0  0
    4.0483    0.3874    2.0438 H   0  0
    3.5332   -1.1668    2.1615 H   0  0
   -0.7075   -1.3839   -1.7313 H   0  0
    1.7033    1.8274   -1.3579 H   0  0
  1  3  2  0
  1  7  1  0
  2  4  2  0
  2  8  1  0
  3  9  1  0
  4 10  1  0
  5  7  2  0
  5 11  1  0
  6  8  2  0
  6 12  1  0
  7 13  1  0
  8 18  1  0
  9 11  2  0
  9 27  1  0
 10 12  2  0
 10 28  1  0
 11 29  1  0
 12 30  1  0
 13 21  1  0
 13 23  2  0
 14 15  1  0
 14 16  1  0
 14 25  1  0
 15 17  1  0
 15 26  1  0
 16 19  1  0
 16 24  1  0
 17 20  1  0
 17 24  1  0
 18 22  1  0
 19 21  1  0
 20 22  1  0
  1 31  1  0
  2 32  1  0
  3 33  1  0
  4 34  1  0
  5 35  1  0
  6 36  1  0
 14 37  1  0
 15 38  1  0
 16 39  1  0
 17 40  1  0
 18 41  1  0
 18 42  1  0
 19 43  1  0
 19 44  1  0
 20 45  1  0
 20 46  1  0
 21 47  1  0
 22 48  1  0
 22 49  1  0
 25 50  1  0
 26 51  1  0
M  CHG  1  22   1
M  END
> <Name>
BR010716

$$$$
BR010717
  SciTegic05062102053D

 60 62  0  0  1  0            999 V2000
    4.8050   -1.8759    4.6575 C   0  0
    5.9872   -2.2897    5.2713 C   0  0
    5.4042    0.4301    5.0581 C   0  0
    4.5135   -0.5160    4.5508 C   0  0
    6.8778   -1.3437    5.7786 C   0  0
    6.5864    0.0163    5.6719 C   0  0
    4.2901   -3.8786   -0.7572 C   0  0
    5.7692   -5.8327    2.9713 C   0  0
    7.0505   -5.7048    2.1556 C   0  0
    4.5447   -6.2948    2.1856 C   0  0
    6.9638   -4.7645    0.9550 C   0  0
    4.0092   -5.2227    1.2401 C   0  0
    6.1777   -5.3575   -0.2144 C   0  0
    4.6602   -5.2185   -0.1384 C   0  0
    1.0862   -0.6492   -1.7589 C   0  0  1  0  0  0
    0.9120    0.2500   -0.5554 C   0  0  1  0  0  0
    1.6753   -1.8958   -1.1176 C   0  0  1  0  0  0
    2.1741   -0.0595    0.2341 C   0  0  1  0  0  0
    3.2414   -0.0724    3.8906 C   0  0
    2.5306   -2.7117   -2.0705 C   0  0
    2.0174    0.1698    1.7268 C   0  0
    3.0743   -3.8788   -1.4140 N   0  0
    3.2796   -0.1973    2.4064 N   0  3
    5.0539   -2.9275   -0.6403 O   0  0
    2.4782   -1.4431   -0.0137 O   0  0
   -0.1468   -0.9380   -2.3894 O   0  0
    0.8624    1.6171   -0.9163 O   0  0
    8.3253   -1.9197    6.5283 Cl  0  0
    7.6497    1.2361    6.2806 Cl  0  0
    4.1162   -2.6201    4.2658 H   0  0
    6.1980   -3.3538    5.3458 H   0  0
    5.1692    1.4885    4.9707 H   0  0
    5.9530   -6.5533    3.7783 H   0  0
    5.5530   -4.8756    3.4623 H   0  0
    7.8380   -5.3355    2.8248 H   0  0
    7.3747   -6.6996    1.8258 H   0  0
    4.7515   -7.2284    1.6499 H   0  0
    3.7566   -6.5221    2.9147 H   0  0
    6.5650   -3.7869    1.2484 H   0  0
    7.9899   -4.5879    0.6072 H   0  0
    2.9331   -5.3958    1.0997 H   0  0
    4.0801   -4.2344    1.7133 H   0  0
    6.5390   -4.8902   -1.1405 H   0  0
    6.4311   -6.4216   -0.3083 H   0  0
    4.2052   -5.9652   -0.7605 H   0  0
    1.7605   -0.1975   -2.4963 H   0  0
   -0.0021   -0.0006   -0.0032 H   0  0
    0.8886   -2.5453   -0.7185 H   0  0
    3.0192    0.5382   -0.1307 H   0  0
    2.3885   -0.6674    4.2344 H   0  0
    3.0262    0.9785    4.1124 H   0  0
    3.3700   -2.1146   -2.4392 H   0  0
    1.9400   -3.0549   -2.9250 H   0  0
    1.2284   -0.4571    2.1462 H   0  0
    1.8214    1.2199    1.9508 H   0  0
    2.5371   -4.7404   -1.4364 H   0  0
    4.0483    0.3874    2.0438 H   0  0
    3.5332   -1.1668    2.1615 H   0  0
   -0.7075   -1.3839   -1.7313 H   0  0
    1.7033    1.8274   -1.3579 H   0  0
  1  2  2  0
  1  4  1  0
  2  5  1  0
  3  4  2  0
  3  6  1  0
  4 19  1  0
  5  6  2  0
  5 28  1  0
  6 29  1  0
  7 14  1  0
  7 22  1  0
  7 24  2  0
  8  9  1  0
  8 10  1  0
  9 11  1  0
 10 12  1  0
 11 13  1  0
 12 14  1  0
 13 14  1  0
 15 16  1  0
 15 17  1  0
 15 26  1  0
 16 18  1  0
 16 27  1  0
 17 20  1  0
 17 25  1  0
 18 21  1  0
 18 25  1  0
 19 23  1  0
 20 22  1  0
 21 23  1  0
  1 30  1  0
  2 31  1  0
  3 32  1  0
  8 33  1  0
  8 34  1  0
  9 35  1  0
  9 36  1  0
 10 37  1  0
 10 38  1  0
 11 39  1  0
 11 40  1  0
 12 41  1  0
 12 42  1  0
 13 43  1  0
 13 44  1  0
 14 45  1  0
 15 46  1  0
 16 47  1  0
 17 48  1  0
 18 49  1  0
 19 50  1  0
 19 51  1  0
 20 52  1  0
 20 53  1  0
 21 54  1  0
 21 55  1  0
 22 56  1  0
 23 57  1  0
 23 58  1  0
 26 59  1  0
 27 60  1  0
M  CHG  1  23   1
M  END
> <Name>
BR010717

$$$$
BR010718
  SciTegic05062102053D

 59 61  0  0  1  0            999 V2000
    6.6076    1.8066   -2.4698 C   0  0
    7.7917    1.7097   -3.2006 C   0  0
    6.9819   -0.4042   -1.5701 C   0  0
    6.2027    0.7497   -1.6545 C   0  0
    8.5710    0.5558   -3.1161 C   0  0
    8.1660   -0.5011   -2.3009 C   0  0
    2.5983   -8.6913   -3.9643 C   0  0
    1.5658   -9.1986   -2.9628 C   0  0
    3.0736   -7.2552   -3.7451 C   0  0
    0.3016   -8.3492   -2.8382 C   0  0
    2.0131   -6.2204   -4.1178 C   0  0
    0.5506   -7.0295   -2.1121 C   0  0
    1.0094   -5.8836   -3.0145 C   0  0
    0.3717   -2.1425    0.3012 C   0  0  1  0  0  0
    0.2213   -0.9113   -0.5648 C   0  0  1  0  0  0
    1.3220   -3.0314   -0.4932 C   0  0  1  0  0  0
    1.5416   -0.8372   -1.3236 C   0  0  1  0  0  0
    4.9286    0.8552   -0.8693 C   0  0
    0.6026   -4.0463   -1.3721 C   0  0
    2.5655    0.0740   -0.6594 C   0  0
    1.6051   -4.8315   -2.1323 N   0  3
    3.8188    0.0452   -1.4456 N   0  3
    2.0874   -2.1678   -1.3518 O   0  0
    0.9910   -1.7636    1.5272 O   0  0
   -0.8434   -1.1301   -1.4860 O   0  0
   10.0270    0.4963   -4.0464 Cl  0  0
    9.0882   -1.9562   -2.1543 Cl  0  0
    6.0061    2.7091   -2.5423 H   0  0
    8.0919    2.5431   -3.8310 H   0  0
    6.6589   -1.2236   -0.9319 H   0  0
    3.4714   -9.3540   -3.9126 H   0  0
    2.1990   -8.7958   -4.9809 H   0  0
    1.2715  -10.2110   -3.2672 H   0  0
    2.0375   -9.3034   -1.9778 H   0  0
    3.4335   -7.1133   -2.7201 H   0  0
    3.9388   -7.0965   -4.4016 H   0  0
   -0.1614   -8.1842   -3.8177 H   0  0
   -0.4203   -8.9257   -2.2458 H   0  0
    2.5191   -5.3003   -4.4389 H   0  0
    1.4638   -6.5693   -5.0019 H   0  0
   -0.3863   -6.7186   -1.6304 H   0  0
    1.2616   -7.1922   -1.2914 H   0  0
    0.1356   -5.4040   -3.4711 H   0  0
   -0.5801   -2.6040    0.5241 H   0  0
   -0.0030   -0.0277    0.0173 H   0  0
    2.0169   -3.5611    0.1584 H   0  0
    1.3941   -0.5113   -2.3535 H   0  0
    5.0684    0.5094    0.1605 H   0  0
    4.5739    1.8907   -0.8283 H   0  0
   -0.0464   -3.5588   -2.1047 H   0  0
    0.0220   -4.7567   -0.7772 H   0  0
    2.8070   -0.2655    0.3494 H   0  0
    2.2213    1.1095   -0.6346 H   0  0
    2.2563   -5.2818   -1.4795 H   0  0
    2.1698   -4.2001   -2.7113 H   0  0
    3.6309    0.3748   -2.4049 H   0  0
    4.1386   -0.9302   -1.5482 H   0  0
    1.0768   -2.5692    2.0657 H   0  0
   -0.9208   -0.3275   -2.0302 H   0  0
  1  2  2  0
  1  4  1  0
  2  5  1  0
  3  4  2  0
  3  6  1  0
  4 18  1  0
  5  6  2  0
  5 26  1  0
  6 27  1  0
  7  8  1  0
  7  9  1  0
  8 10  1  0
  9 11  1  0
 10 12  1  0
 11 13  1  0
 12 13  1  0
 13 21  1  0
 14 15  1  0
 14 16  1  0
 14 24  1  0
 15 17  1  0
 15 25  1  0
 16 19  1  0
 16 23  1  0
 17 20  1  0
 17 23  1  0
 18 22  1  0
 19 21  1  0
 20 22  1  0
  1 28  1  0
  2 29  1  0
  3 30  1  0
  7 31  1  0
  7 32  1  0
  8 33  1  0
  8 34  1  0
  9 35  1  0
  9 36  1  0
 10 37  1  0
 10 38  1  0
 11 39  1  0
 11 40  1  0
 12 41  1  0
 12 42  1  0
 13 43  1  0
 14 44  1  0
 15 45  1  0
 16 46  1  0
 17 47  1  0
 18 48  1  0
 18 49  1  0
 19 50  1  0
 19 51  1  0
 20 52  1  0
 20 53  1  0
 21 54  1  0
 21 55  1  0
 22 56  1  0
 22 57  1  0
 24 58  1  0
 25 59  1  0
M  CHG  2  21   1  22   1
M  END
> <Name>
BR010718

$$$$
BR020001
  SciTegic05062102053D

 51 53  0  0  0  0            999 V2000
   -1.2310    2.6679   -0.6591 C   0  0
   -2.1481    3.7954   -0.3056 C   0  0
   -1.5353    1.3432   -0.0345 C   0  0
   -2.0854    4.9072   -1.0536 C   0  0
   -0.9221    0.2617   -0.5381 C   0  0
   -3.1137    3.6556    0.8341 C   0  0
   -2.5145    1.2479    1.0981 C   0  0
   -3.6603    2.2384    0.9411 C   0  0
   -4.3410    8.4954   -1.8857 C   0  0
   -1.2050   -4.0479   -0.4885 C   0  0
   -3.0341    8.6322   -1.1104 C   0  0
   -5.1095    7.2436   -1.4732 C   0  0
   -2.4879   -3.2418   -0.3086 C   0  0
   -0.0280   -3.3972    0.2319 C   0  0
   -2.1705    7.3800   -1.2367 C   0  0
   -4.2508    5.9880   -1.6001 C   0  0
   -2.3049   -1.7886   -0.7380 C   0  0
    0.1608   -1.9443   -0.1960 C   0  0
   -2.9371    6.1207   -0.8266 C   0  0
   -1.1238   -1.1314   -0.0203 C   0  0
   -0.2817    2.8208   -1.4229 O   0  0
   -1.3787    4.9446   -1.8779 H   0  0
   -0.2376    0.3922   -1.3691 H   0  0
   -2.6005    3.9226    1.7666 H   0  0
   -3.9543    4.3511    0.7221 H   0  0
   -2.9301    0.2356    1.1715 H   0  0
   -1.9857    1.4448    2.0393 H   0  0
   -4.3297    2.1667    1.8061 H   0  0
   -4.2552    1.9929    0.0519 H   0  0
   -4.9640    9.3817   -1.7132 H   0  0
   -4.1286    8.4591   -2.9605 H   0  0
   -1.3540   -5.0645   -0.1038 H   0  0
   -0.9765   -4.1414   -1.5565 H   0  0
   -2.4806    9.5026   -1.4806 H   0  0
   -3.2533    8.8217   -0.0545 H   0  0
   -5.4511    7.3499   -0.4371 H   0  0
   -6.0087    7.1447   -2.0933 H   0  0
   -3.2922   -3.7022   -0.8934 H   0  0
   -2.7985   -3.2780    0.7407 H   0  0
   -0.1932   -3.4412    1.3146 H   0  0
    0.8864   -3.9677    0.0289 H   0  0
   -1.7850    7.2967   -2.2519 H   0  0
   -1.3105    7.4894   -0.5740 H   0  0
   -4.8104    5.1445   -1.1896 H   0  0
   -4.0693    5.7684   -2.6529 H   0  0
   -2.1848   -1.7362   -1.8205 H   0  0
   -3.2184   -1.2429   -0.4915 H   0  0
    0.9498   -1.5044    0.4202 H   0  0
    0.5093   -1.9068   -1.2302 H   0  0
   -3.1546    6.1693    0.2309 H   0  0
   -1.3511   -1.0605    1.0350 H   0  0
  1  2  1  0
  1  3  1  0
  1 21  2  0
  2  4  2  0
  2  6  1  0
  3  5  2  0
  3  7  1  0
  4 19  1  0
  5 20  1  0
  6  8  1  0
  7  8  1  0
  9 11  1  0
  9 12  1  0
 10 13  1  0
 10 14  1  0
 11 15  1  0
 12 16  1  0
 13 17  1  0
 14 18  1  0
 15 19  1  0
 16 19  1  0
 17 20  1  0
 18 20  1  0
  4 22  1  0
  5 23  1  0
  6 24  1  0
  6 25  1  0
  7 26  1  0
  7 27  1  0
  8 28  1  0
  8 29  1  0
  9 30  1  0
  9 31  1  0
 10 32  1  0
 10 33  1  0
 11 34  1  0
 11 35  1  0
 12 36  1  0
 12 37  1  0
 13 38  1  0
 13 39  1  0
 14 40  1  0
 14 41  1  0
 15 42  1  0
 15 43  1  0
 16 44  1  0
 16 45  1  0
 17 46  1  0
 17 47  1  0
 18 48  1  0
 18 49  1  0
 19 50  1  0
 20 51  1  0
M  END
> <Name>
BR020001

$$$$
BR020002
  SciTegic05062102053D

 47 49  0  0  0  0            999 V2000
    2.2571   -0.0337   -1.9851 C   0  0
    0.4650   -1.5749   -2.4853 C   0  0
    1.2469   -3.4501    6.2396 C   0  0
    2.9442   -1.7314    6.1959 C   0  0
    2.6568   -0.0648   -3.3210 C   0  0
    0.8646   -1.6060   -3.8213 C   0  0
    1.8471   -4.0143    7.3652 C   0  0
    3.5445   -2.2955    7.3216 C   0  0
    1.1612   -0.7888   -1.5671 C   0  0
    1.7955   -2.3087    5.6549 C   0  0
    1.9605   -0.8509   -4.2392 C   0  0
    2.9959   -3.4370    7.9062 C   0  0
    0.6933   -1.4041    2.1433 C   0  0
    1.2294   -1.5699    0.7568 C   0  0
    1.4567   -2.0825    3.2363 C   0  0
    0.7514   -0.7570   -0.1971 C   0  0
    1.1799   -1.7301    4.5006 C   0  0
    2.2828   -2.5994    0.4716 C   0  0
    2.5082   -3.1002    2.9056 C   0  0
    3.2601   -2.7439    1.6304 C   0  0
    3.4790   -0.0853   -5.9017 C   0  0
    4.7535   -3.3464    9.5057 C   0  0
   -0.3168   -0.7444    2.3722 O   0  0
    2.3505   -0.8813   -5.5428 O   0  0
    3.5816   -3.9876    9.0046 O   0  0
    2.8098    0.5839   -1.2812 H   0  0
   -0.3912   -2.1690   -2.1747 H   0  0
    0.3517   -3.9115    5.8294 H   0  0
    3.3836   -0.8415    5.7514 H   0  0
    3.5112    0.5255   -3.6407 H   0  0
    0.3184   -2.2203   -4.5319 H   0  0
    1.4152   -4.9035    7.8163 H   0  0
    4.4392   -1.8414    7.7385 H   0  0
    0.0235   -0.0086    0.1052 H   0  0
    0.4159   -0.9717    4.6503 H   0  0
    1.7930   -3.5629    0.2821 H   0  0
    2.8447   -2.3434   -0.4347 H   0  0
    3.2298   -3.1975    3.7258 H   0  0
    2.0268   -4.0791    2.7863 H   0  0
    3.9888   -3.5300    1.4012 H   0  0
    3.8240   -1.8125    1.7699 H   0  0
    3.6828   -0.2011   -6.9690 H   0  0
    4.3479   -0.3992   -5.3178 H   0  0
    3.2574    0.9628   -5.6870 H   0  0
    5.1188   -3.8867   10.3824 H   0  0
    4.5186   -2.3130    9.7730 H   0  0
    5.5223   -3.3540    8.7294 H   0  0
  1  5  1  0
  1  9  2  0
  2  6  2  0
  2  9  1  0
  3  7  1  0
  3 10  2  0
  4  8  2  0
  4 10  1  0
  5 11  2  0
  6 11  1  0
  7 12  2  0
  8 12  1  0
  9 16  1  0
 10 17  1  0
 11 24  1  0
 12 25  1  0
 13 14  1  0
 13 15  1  0
 13 23  2  0
 14 16  2  0
 14 18  1  0
 15 17  2  0
 15 19  1  0
 18 20  1  0
 19 20  1  0
 21 24  1  0
 22 25  1  0
  1 26  1  0
  2 27  1  0
  3 28  1  0
  4 29  1  0
  5 30  1  0
  6 31  1  0
  7 32  1  0
  8 33  1  0
 16 34  1  0
 17 35  1  0
 18 36  1  0
 18 37  1  0
 19 38  1  0
 19 39  1  0
 20 40  1  0
 20 41  1  0
 21 42  1  0
 21 43  1  0
 21 44  1  0
 22 45  1  0
 22 46  1  0
 22 47  1  0
M  END
> <Name>
BR020002

$$$$
BR020003
  SciTegic05062102053D

 55 57  0  0  0  0            999 V2000
    0.4648   -1.5751   -2.4851 C   0  0
    1.2466   -3.4501    6.2394 C   0  0
    0.8626   -1.6043   -3.8216 C   0  0
    1.8481   -4.0160    7.3635 C   0  0
    2.2555   -0.0319   -1.9858 C   0  0
    2.9457   -1.7330    6.1946 C   0  0
    1.1612   -0.7888   -1.5671 C   0  0
    1.7955   -2.3087    5.6549 C   0  0
    1.9569   -0.8474   -4.2403 C   0  0
    2.9983   -3.4404    7.9032 C   0  0
    2.6534   -0.0612   -3.3224 C   0  0
    3.5472   -2.2989    7.3188 C   0  0
    0.6933   -1.4041    2.1433 C   0  0
    1.2294   -1.5699    0.7568 C   0  0
    1.4567   -2.0825    3.2363 C   0  0
    0.7514   -0.7570   -0.1971 C   0  0
    1.1799   -1.7301    4.5006 C   0  0
    2.2828   -2.5994    0.4716 C   0  0
    2.5082   -3.1002    2.9056 C   0  0
    3.2601   -2.7439    1.6304 C   0  0
    1.5699   -1.7138   -6.4210 C   0  0
    2.9519   -5.1680    9.5369 C   0  0
    5.0049    0.0570   -3.6574 C   0  0
    5.9226   -2.1863    7.3340 C   0  0
   -0.3168   -0.7444    2.3722 O   0  0
    2.3352   -0.8849   -5.5484 O   0  0
    3.5760   -4.0027    9.0013 O   0  0
    3.7241    0.6813   -3.7201 O   0  0
    4.6697   -1.7278    7.8381 O   0  0
   -0.3908   -2.1695   -2.1737 H   0  0
    0.3511   -3.9106    5.8293 H   0  0
    0.3159   -2.2191   -4.5315 H   0  0
    1.4154   -4.9051    7.8141 H   0  0
    2.8040    0.5844   -1.2768 H   0  0
    3.3806   -0.8431    5.7449 H   0  0
    0.0235   -0.0086    0.1052 H   0  0
    0.4159   -0.9717    4.6503 H   0  0
    1.7930   -3.5629    0.2821 H   0  0
    2.8447   -2.3434   -0.4347 H   0  0
    3.2298   -3.1975    3.7258 H   0  0
    2.0268   -4.0791    2.7863 H   0  0
    3.9888   -3.5300    1.4012 H   0  0
    3.8240   -1.8125    1.7699 H   0  0
    1.9771   -1.6524   -7.4332 H   0  0
    0.5274   -1.3856   -6.4156 H   0  0
    1.6264   -2.7470   -6.0701 H   0  0
    3.5123   -5.5143   10.4087 H   0  0
    2.9235   -5.9504    8.7744 H   0  0
    1.9317   -4.9183    9.8381 H   0  0
    5.7697    0.7573   -4.0019 H   0  0
    5.0061   -0.8381   -4.2846 H   0  0
    5.2124   -0.2254   -2.6225 H   0  0
    6.7346   -1.6501    7.8314 H   0  0
    5.9666   -2.0165    6.2553 H   0  0
    6.0174   -3.2557    7.5367 H   0  0
  1  3  2  0
  1  7  1  0
  2  4  1  0
  2  8  2  0
  3  9  1  0
  4 10  2  0
  5  7  2  0
  5 11  1  0
  6  8  1  0
  6 12  2  0
  7 16  1  0
  8 17  1  0
  9 11  2  0
  9 26  1  0
 10 12  1  0
 10 27  1  0
 11 28  1  0
 12 29  1  0
 13 14  1  0
 13 15  1  0
 13 25  2  0
 14 16  2  0
 14 18  1  0
 15 17  2  0
 15 19  1  0
 18 20  1  0
 19 20  1  0
 21 26  1  0
 22 27  1  0
 23 28  1  0
 24 29  1  0
  1 30  1  0
  2 31  1  0
  3 32  1  0
  4 33  1  0
  5 34  1  0
  6 35  1  0
 16 36  1  0
 17 37  1  0
 18 38  1  0
 18 39  1  0
 19 40  1  0
 19 41  1  0
 20 42  1  0
 20 43  1  0
 21 44  1  0
 21 45  1  0
 21 46  1  0
 22 47  1  0
 22 48  1  0
 22 49  1  0
 23 50  1  0
 23 51  1  0
 23 52  1  0
 24 53  1  0
 24 54  1  0
 24 55  1  0
M  END
> <Name>
BR020003

$$$$
BR020004
  SciTegic05062102053D

 49 51  0  0  0  0            999 V2000
    0.4648   -1.5751   -2.4851 C   0  0
    1.2466   -3.4501    6.2394 C   0  0
    0.8626   -1.6043   -3.8216 C   0  0
    1.8481   -4.0160    7.3635 C   0  0
    2.2555   -0.0319   -1.9858 C   0  0
    2.9457   -1.7330    6.1946 C   0  0
    1.1612   -0.7888   -1.5671 C   0  0
    1.7955   -2.3087    5.6549 C   0  0
    1.9569   -0.8474   -4.2403 C   0  0
    2.9983   -3.4404    7.9032 C   0  0
    2.6534   -0.0612   -3.3224 C   0  0
    3.5472   -2.2989    7.3188 C   0  0
    0.6933   -1.4041    2.1433 C   0  0
    1.2294   -1.5699    0.7568 C   0  0
    1.4567   -2.0825    3.2363 C   0  0
    0.7514   -0.7570   -0.1971 C   0  0
    1.1799   -1.7301    4.5006 C   0  0
    2.2828   -2.5994    0.4716 C   0  0
    2.5082   -3.1002    2.9056 C   0  0
    3.2601   -2.7439    1.6304 C   0  0
    4.3815    1.4577   -2.7206 C   0  0
    5.1672   -0.5632    7.1821 C   0  0
   -0.3168   -0.7444    2.3722 O   0  0
    2.3352   -0.8849   -5.5484 O   0  0
    3.5760   -4.0027    9.0013 O   0  0
    3.7241    0.6813   -3.7201 O   0  0
    4.6697   -1.7278    7.8381 O   0  0
   -0.3908   -2.1695   -2.1737 H   0  0
    0.3511   -3.9106    5.8293 H   0  0
    0.3159   -2.2191   -4.5315 H   0  0
    1.4154   -4.9051    7.8141 H   0  0
    2.8040    0.5844   -1.2768 H   0  0
    3.3806   -0.8431    5.7449 H   0  0
    0.0235   -0.0086    0.1052 H   0  0
    0.4159   -0.9717    4.6503 H   0  0
    1.7930   -3.5629    0.2821 H   0  0
    2.8447   -2.3434   -0.4347 H   0  0
    3.2298   -3.1975    3.7258 H   0  0
    2.0268   -4.0791    2.7863 H   0  0
    3.9888   -3.5300    1.4012 H   0  0
    3.8240   -1.8125    1.7699 H   0  0
    5.2164    2.0006   -3.1704 H   0  0
    4.7458    0.7995   -1.9278 H   0  0
    3.6697    2.1720   -2.3001 H   0  0
    6.0640   -0.2094    7.6965 H   0  0
    4.4000    0.2151    7.1878 H   0  0
    5.4184   -0.8169    6.1495 H   0  0
    1.7509   -1.4753   -6.0496 H   0  0
    3.0740   -4.7843    9.2809 H   0  0
  1  3  2  0
  1  7  1  0
  2  4  1  0
  2  8  2  0
  3  9  1  0
  4 10  2  0
  5  7  2  0
  5 11  1  0
  6  8  1  0
  6 12  2  0
  7 16  1  0
  8 17  1  0
  9 11  2  0
  9 24  1  0
 10 12  1  0
 10 25  1  0
 11 26  1  0
 12 27  1  0
 13 14  1  0
 13 15  1  0
 13 23  2  0
 14 16  2  0
 14 18  1  0
 15 17  2  0
 15 19  1  0
 18 20  1  0
 19 20  1  0
 21 26  1  0
 22 27  1  0
  1 28  1  0
  2 29  1  0
  3 30  1  0
  4 31  1  0
  5 32  1  0
  6 33  1  0
 16 34  1  0
 17 35  1  0
 18 36  1  0
 18 37  1  0
 19 38  1  0
 19 39  1  0
 20 40  1  0
 20 41  1  0
 21 42  1  0
 21 43  1  0
 21 44  1  0
 22 45  1  0
 22 46  1  0
 22 47  1  0
 24 48  1  0
 25 49  1  0
M  END
> <Name>
BR020004

$$$$
BR020005
  SciTegic05062102053D

 34 35  0  0  0  0            999 V2000
    1.6298   -2.1238    0.4040 C   0  0
    3.1284   -0.5582    1.4718 C   0  0
    4.8926   -7.8936   -3.3828 C   0  0
    7.3079   -7.9491   -3.3795 C   0  0
    0.5510   -1.5502    1.0770 C   0  0
    2.0496    0.0155    2.1447 C   0  0
    4.8638   -9.1769   -3.9286 C   0  0
    7.2792   -9.2324   -3.9252 C   0  0
    2.9185   -1.6278    0.6015 C   0  0
    6.1147   -7.2797   -3.1083 C   0  0
    0.7609   -0.4806    1.9473 C   0  0
    6.0571   -9.8463   -4.1998 C   0  0
    4.0433   -2.2260   -0.1001 C   0  0
    6.1450   -5.9238   -2.5318 C   0  0
    4.0529   -3.4614   -0.6496 C   0  0
    5.1196   -5.3474   -1.8878 C   0  0
    5.2710   -3.9720   -1.3376 C   0  0
    6.3023   -3.3199   -1.4424 O   0  0
   -0.2917    0.0792    2.6039 O   0  0
    6.0291  -11.0986   -4.7324 O   0  0
    1.4503   -2.9571   -0.2712 H   0  0
    4.1270   -0.1605    1.6360 H   0  0
    3.9540   -7.3845   -3.1769 H   0  0
    8.2683   -7.4837   -3.1710 H   0  0
   -0.4505   -1.9409    0.9191 H   0  0
    2.2193    0.8485    2.8214 H   0  0
    3.9088   -9.6500   -4.1404 H   0  0
    8.2121   -9.7490   -4.1343 H   0  0
    4.9522   -1.6166   -0.1607 H   0  0
    7.0897   -5.3960   -2.6411 H   0  0
    3.1863   -4.1110   -0.5959 H   0  0
    4.1725   -5.8550   -1.7412 H   0  0
    0.0128    0.8075    3.1684 H   0  0
    6.9322  -11.4290   -4.8627 H   0  0
  1  5  1  0
  1  9  2  0
  2  6  2  0
  2  9  1  0
  3  7  1  0
  3 10  2  0
  4  8  2  0
  4 10  1  0
  5 11  2  0
  6 11  1  0
  7 12  2  0
  8 12  1  0
  9 13  1  0
 10 14  1  0
 11 19  1  0
 12 20  1  0
 13 15  2  0
 14 16  2  0
 15 17  1  0
 16 17  1  0
 17 18  2  0
  1 21  1  0
  2 22  1  0
  3 23  1  0
  4 24  1  0
  5 25  1  0
  6 26  1  0
  7 27  1  0
  8 28  1  0
 13 29  1  0
 14 30  1  0
 15 31  1  0
 16 32  1  0
 19 33  1  0
 20 34  1  0
M  END
> <Name>
BR020005

$$$$
BR020006
  SciTegic05062102053D

 42 43  0  0  0  0            999 V2000
    3.1309   -0.5578    1.4708 C   0  0
    7.2958   -7.9586   -3.3775 C   0  0
    2.0534    0.0199    2.1421 C   0  0
    7.2651   -9.2434   -3.9197 C   0  0
    1.6285   -2.1202    0.4037 C   0  0
    4.8805   -7.9010   -3.3770 C   0  0
    2.9185   -1.6279    0.6015 C   0  0
    6.1035   -7.2874   -3.1060 C   0  0
    0.7634   -0.4725    1.9443 C   0  0
    6.0421   -9.8569   -4.1907 C   0  0
    0.5509   -1.5426    1.0751 C   0  0
    4.8497   -9.1857   -3.9193 C   0  0
    4.0419   -2.2283   -0.1005 C   0  0
    6.1363   -5.9312   -2.5306 C   0  0
    4.0493   -3.4641   -0.6490 C   0  0
    5.1122   -5.3527   -1.8864 C   0  0
    5.2661   -3.9771   -1.3374 C   0  0
   -0.8367   -3.1272   -0.0290 C   0  0
    2.4776   -9.0221   -3.8746 C   0  0
    6.2983   -3.3266   -1.4435 O   0  0
   -0.2803    0.1005    2.6061 O   0  0
    6.0258  -11.1118   -4.7203 O   0  0
   -0.7045   -2.0321    0.8751 O   0  0
    3.6496   -9.7750   -4.1808 O   0  0
    4.1306   -0.1625    1.6342 H   0  0
    8.2567   -7.4937   -3.1706 H   0  0
    2.2258    0.8531    2.8181 H   0  0
    8.1975   -9.7606   -4.1290 H   0  0
    1.4538   -2.9541   -0.2727 H   0  0
    3.9459   -7.3850   -3.1680 H   0  0
    4.9517   -1.6202   -0.1622 H   0  0
    7.0817   -5.4049   -2.6410 H   0  0
    3.1817   -4.1124   -0.5941 H   0  0
    4.1645   -5.8587   -1.7387 H   0  0
   -1.8874   -3.4197   -0.0972 H   0  0
   -0.2356   -3.9683    0.3257 H   0  0
   -0.4820   -2.8187   -1.0153 H   0  0
    1.5908   -9.6068   -4.1310 H   0  0
    2.4863   -8.0868   -4.4399 H   0  0
    2.4676   -8.7991   -2.8051 H   0  0
    0.0361    0.8264    3.1666 H   0  0
    6.9321  -11.4339   -4.8472 H   0  0
  1  3  2  0
  1  7  1  0
  2  4  1  0
  2  8  2  0
  3  9  1  0
  4 10  2  0
  5  7  2  0
  5 11  1  0
  6  8  1  0
  6 12  2  0
  7 13  1  0
  8 14  1  0
  9 11  2  0
  9 21  1  0
 10 12  1  0
 10 22  1  0
 11 23  1  0
 12 24  1  0
 13 15  2  0
 14 16  2  0
 15 17  1  0
 16 17  1  0
 17 20  2  0
 18 23  1  0
 19 24  1  0
  1 25  1  0
  2 26  1  0
  3 27  1  0
  4 28  1  0
  5 29  1  0
  6 30  1  0
 13 31  1  0
 14 32  1  0
 15 33  1  0
 16 34  1  0
 18 35  1  0
 18 36  1  0
 18 37  1  0
 19 38  1  0
 19 39  1  0
 19 40  1  0
 21 41  1  0
 22 42  1  0
M  END
> <Name>
BR020006

$$$$
BR020007
  SciTegic05062102053D

 26 26  0  0  0  0            999 V2000
    1.8851   -1.0363   -0.1124 C   0  0
    0.8066   -0.4630    0.5610 C   0  0
    2.8783   -1.6520    2.0022 C   0  0
    2.9210   -1.6309    0.6081 C   0  0
    0.7638   -0.4841    1.9551 C   0  0
    1.7997   -1.0786    2.6757 C   0  0
    4.0442   -2.2310   -0.0944 C   0  0
    4.8888   -3.1462    0.4300 C   0  0
    6.0067   -3.7097   -0.3790 C   0  0
    6.8890   -4.7231    0.3017 C   0  0
    2.8660   -1.7307    4.6989 C   0  0
    6.1946   -3.3899   -1.5505 O   0  0
   -0.2951    0.0793    2.6006 O   0  0
    1.7688   -1.1042    4.0374 O   0  0
    1.9040   -1.0132   -1.1994 H   0  0
    0.0030   -0.0013   -0.0063 H   0  0
    3.6816   -2.1140    2.5720 H   0  0
    4.1866   -1.9164   -1.1343 H   0  0
    4.7785   -3.5114    1.4448 H   0  0
    6.4823   -5.7243    0.1384 H   0  0
    7.8980   -4.6582   -0.1154 H   0  0
    6.9582   -4.5304    1.3757 H   0  0
    2.7165   -1.6820    5.7803 H   0  0
    3.7950   -1.2239    4.4256 H   0  0
    2.9186   -2.7766    4.3874 H   0  0
   -0.9227    0.4462    1.9583 H   0  0
  1  2  2  0
  1  4  1  0
  2  5  1  0
  3  4  2  0
  3  6  1  0
  4  7  1  0
  5  6  2  0
  5 13  1  0
  6 14  1  0
  7  8  2  0
  8  9  1  0
  9 10  1  0
  9 12  2  0
 11 14  1  0
  1 15  1  0
  2 16  1  0
  3 17  1  0
  7 18  1  0
  8 19  1  0
 10 20  1  0
 10 21  1  0
 10 22  1  0
 11 23  1  0
 11 24  1  0
 11 25  1  0
 13 26  1  0
M  END
> <Name>
BR020007

$$$$
BR020008
  SciTegic05062102053D

 28 29  0  0  0  0            999 V2000
   -2.1672    1.5227    1.6850 C   0  0
   -2.0412    1.7686    0.3178 C   0  0
   -1.3083    0.6210    2.3136 C   0  0
   -1.0565    1.1126   -0.4209 C   0  0
   -0.3236   -0.0349    1.5749 C   0  0
   -0.1977    0.2109    0.2076 C   0  0
    0.6328   -1.6243   -1.1916 C   0  0
    1.7870   -2.2021   -1.9409 C   0  0
    0.8131   -0.4627   -0.5501 C   0  0
   -0.6661   -2.3705   -1.2304 C   0  0
    1.4715   -2.9176   -3.2375 C   0  0
   -0.9748   -2.8998   -2.6287 C   0  0
    0.1873   -3.7331   -3.1600 C   0  0
    2.9461   -2.0393   -1.5655 O   0  0
   -2.9330    2.0344    2.2605 H   0  0
   -2.7091    2.4716   -0.1716 H   0  0
   -1.4055    0.4304    3.3783 H   0  0
   -0.9707    1.3146   -1.4860 H   0  0
    0.3382   -0.7350    2.0792 H   0  0
    1.7891    0.0101   -0.6364 H   0  0
   -0.6096   -3.2110   -0.5270 H   0  0
   -1.4954   -1.7340   -0.8992 H   0  0
    1.4015   -2.1622   -4.0286 H   0  0
    2.3061   -3.5849   -3.4797 H   0  0
   -1.8827   -3.5131   -2.5953 H   0  0
   -1.1757   -2.0644   -3.3113 H   0  0
   -0.0604   -4.1231   -4.1539 H   0  0
    0.3415   -4.5995   -2.5044 H   0  0
  1  2  2  0
  1  3  1  0
  2  4  1  0
  3  5  2  0
  4  6  2  0
  5  6  1  0
  6  9  1  0
  7  8  1  0
  7  9  2  0
  7 10  1  0
  8 11  1  0
  8 14  2  0
 10 12  1  0
 11 13  1  0
 12 13  1  0
  1 15  1  0
  2 16  1  0
  3 17  1  0
  4 18  1  0
  5 19  1  0
  9 20  1  0
 10 21  1  0
 10 22  1  0
 11 23  1  0
 11 24  1  0
 12 25  1  0
 12 26  1  0
 13 27  1  0
 13 28  1  0
M  END
> <Name>
BR020008

$$$$
BR020009
  SciTegic05062102053D

 30 31  0  0  1  0            999 V2000
   -1.5198   -1.6207   -4.1361 C   0  0
   -3.1411   -3.0312   -3.0561 C   0  0
   -2.5709   -1.0200   -4.8099 C   0  0
   -4.1197   -2.3672   -3.7781 C   0  0
   -1.8187   -2.6447   -3.2443 C   0  0
   -1.0390   -1.7798   -0.5633 C   0  0
    0.2293   -0.9575   -0.4795 C   0  0
    1.2986   -1.6868    0.3198 C   0  0
    1.5317   -3.1007   -0.2038 C   0  0
    0.2337   -3.9062   -0.1901 C   0  0
   -0.8998   -3.2376   -0.9735 C   0  0  2  0  0  0
   -0.7126   -3.3343   -2.4842 C   0  0  1  0  0  0
   -3.8678   -1.3681   -4.6533 N   0  0
   -2.1454   -1.2643   -0.4019 O   0  0
   -0.6990   -4.7103   -2.8554 O   0  0
   -0.4986   -1.2965   -4.3060 H   0  0
   -3.4059   -3.8261   -2.3675 H   0  0
   -2.3906   -0.2172   -5.5174 H   0  0
   -5.1662   -2.6311   -3.6672 H   0  0
    0.5945   -0.7567   -1.4939 H   0  0
   -0.0200    0.0048   -0.0155 H   0  0
    2.2404   -1.1247    0.2684 H   0  0
    1.0071   -1.7262    1.3760 H   0  0
    1.9237   -3.0540   -1.2254 H   0  0
    2.2873   -3.6045    0.4101 H   0  0
    0.4344   -4.9096   -0.6049 H   0  0
   -0.0800   -4.0653    0.8551 H   0  0
   -1.8621   -3.7186   -0.7204 H   0  0
    0.2663   -2.9163   -2.7436 H   0  0
   -0.5404   -4.7367   -3.8117 H   0  0
  1  3  1  0
  1  5  2  0
  2  4  2  0
  2  5  1  0
  3 13  2  0
  4 13  1  0
  5 12  1  0
  6  7  1  0
  6 11  1  0
  6 14  2  0
  7  8  1  0
  8  9  1  0
  9 10  1  0
 10 11  1  0
 11 12  1  0
 12 15  1  0
  1 16  1  0
  2 17  1  0
  3 18  1  0
  4 19  1  0
  7 20  1  0
  7 21  1  0
  8 22  1  0
  8 23  1  0
  9 24  1  0
  9 25  1  0
 10 26  1  0
 10 27  1  0
 11 28  1  0
 12 29  1  0
 15 30  1  0
M  END
> <Name>
BR020009

$$$$
BR020010
  SciTegic05062102053D

 30 31  0  0  1  0            999 V2000
    5.6039   -3.4273   -2.2250 C   0  0
    6.1651   -1.9729   -0.3935 C   0  0
    6.7580   -4.1400   -1.9421 C   0  0
    7.2939   -2.7508   -0.1925 C   0  0
    5.3090   -2.3245   -1.4313 C   0  0
    1.9234   -0.5734   -0.7415 C   0  0
    0.8794   -0.5479    0.3544 C   0  0
    0.4833   -1.9634    0.7479 C   0  0
    1.7022   -2.8151    1.0921 C   0  0
    2.6900   -2.8543   -0.0731 C   0  0
    3.1448   -1.4495   -0.4807 C   0  0  1  0  0  0
    4.0653   -1.5118   -1.6955 C   0  0  1  0  0  0
    7.6136   -3.8290   -0.9427 N   0  0
    1.8182    0.1471   -1.7330 O   0  0
    4.4571   -0.1855   -2.0400 O   0  0
    4.9571   -3.7270   -3.0427 H   0  0
    5.9621   -1.1185    0.2429 H   0  0
    7.0336   -5.0077   -2.5325 H   0  0
    7.9933   -2.5184    0.6038 H   0  0
    1.2961   -0.0043    1.2090 H   0  0
   -0.0001   -0.0005   -0.0004 H   0  0
   -0.1989   -1.9305    1.6047 H   0  0
   -0.0624   -2.4342   -0.0795 H   0  0
    2.1969   -2.4124    1.9842 H   0  0
    1.3809   -3.8343    1.3349 H   0  0
    3.5589   -3.4598    0.2106 H   0  0
    2.2147   -3.3569   -0.9257 H   0  0
    3.6951   -0.9869    0.3484 H   0  0
    3.5008   -1.9162   -2.5429 H   0  0
    3.6398    0.3102   -2.2033 H   0  0
  1  3  1  0
  1  5  2  0
  2  4  2  0
  2  5  1  0
  3 13  2  0
  4 13  1  0
  5 12  1  0
  6  7  1  0
  6 11  1  0
  6 14  2  0
  7  8  1  0
  8  9  1  0
  9 10  1  0
 10 11  1  0
 11 12  1  0
 12 15  1  0
  1 16  1  0
  2 17  1  0
  3 18  1  0
  4 19  1  0
  7 20  1  0
  7 21  1  0
  8 22  1  0
  8 23  1  0
  9 24  1  0
  9 25  1  0
 10 26  1  0
 10 27  1  0
 11 28  1  0
 12 29  1  0
 15 30  1  0
M  END
> <Name>
BR020010

$$$$
BR020011
  SciTegic05062102053D

 30 31  0  0  1  0            999 V2000
   -1.6278   -3.1563    5.4256 C   0  0
    0.5800   -3.1321    4.4720 C   0  0
   -1.3096   -4.3783    5.9959 C   0  0
    0.7994   -4.3551    5.0851 C   0  0
   -0.6595   -2.5279    4.6506 C   0  0
   -1.0308    0.1274    1.8554 C   0  0
   -1.0270    0.1672    0.3422 C   0  0
   -1.9684   -0.8863   -0.2228 C   0  0
   -1.6719   -2.2709    0.3472 C   0  0
   -1.7527   -2.2638    1.8731 C   0  0
   -0.7935   -1.2402    2.4887 C   0  0  2  0  0  0
   -0.9527   -1.1958    4.0052 C   0  0  2  0  0  0
   -0.1167   -4.9961    5.8451 N   0  0
   -1.1279    1.1608    2.5155 O   0  0
   -0.0485   -0.2291    4.5337 O   0  0
   -2.6047   -2.7117    5.5834 H   0  0
    1.3556   -2.6668    3.8735 H   0  0
   -2.0307   -4.9100    6.6083 H   0  0
    1.7496   -4.8676    4.9768 H   0  0
   -1.3385    1.1625    0.0083 H   0  0
    0.0001    0.0000    0.0002 H   0  0
   -3.0050   -0.6150    0.0136 H   0  0
   -1.8834   -0.9095   -1.3150 H   0  0
   -2.3901   -2.9945   -0.0546 H   0  0
   -0.6740   -2.5972    0.0302 H   0  0
   -2.7844   -2.0393    2.1738 H   0  0
   -1.5207   -3.2665    2.2513 H   0  0
    0.2415   -1.5214    2.2566 H   0  0
   -1.9675   -0.8567    4.2407 H   0  0
   -0.2036   -0.2000    5.4905 H   0  0
  1  3  1  0
  1  5  2  0
  2  4  2  0
  2  5  1  0
  3 13  2  0
  4 13  1  0
  5 12  1  0
  6  7  1  0
  6 11  1  0
  6 14  2  0
  7  8  1  0
  8  9  1  0
  9 10  1  0
 10 11  1  0
 11 12  1  0
 12 15  1  0
  1 16  1  0
  2 17  1  0
  3 18  1  0
  4 19  1  0
  7 20  1  0
  7 21  1  0
  8 22  1  0
  8 23  1  0
  9 24  1  0
  9 25  1  0
 10 26  1  0
 10 27  1  0
 11 28  1  0
 12 29  1  0
 15 30  1  0
M  END
> <Name>
BR020011

$$$$
BR020012
  SciTegic05062102053D

 30 31  0  0  1  0            999 V2000
    4.8304    0.4901   -3.0084 C   0  0
    5.7494    0.1327   -0.8147 C   0  0
    5.6189    1.6262   -3.0947 C   0  0
    6.4969    1.2847   -0.9993 C   0  0
    4.9028   -0.2654   -1.8433 C   0  0
    1.9234   -0.5734   -0.7415 C   0  0
    0.8794   -0.5479    0.3544 C   0  0
    0.4833   -1.9634    0.7479 C   0  0
    1.7022   -2.8151    1.0921 C   0  0
    2.6900   -2.8543   -0.0731 C   0  0
    3.1448   -1.4495   -0.4807 C   0  0  1  0  0  0
    4.0653   -1.5118   -1.6955 C   0  0  2  0  0  0
    6.4533    2.0444   -2.1167 N   0  0
    1.8182    0.1471   -1.7330 O   0  0
    4.9392   -2.6287   -1.5525 O   0  0
    4.1793    0.2070   -3.8285 H   0  0
    5.8279   -0.4356    0.1057 H   0  0
    5.5981    2.2505   -3.9820 H   0  0
    7.1723    1.6376   -0.2270 H   0  0
    1.2961   -0.0043    1.2090 H   0  0
   -0.0001   -0.0005   -0.0004 H   0  0
   -0.1989   -1.9305    1.6047 H   0  0
   -0.0624   -2.4342   -0.0795 H   0  0
    2.1969   -2.4124    1.9842 H   0  0
    1.3809   -3.8343    1.3349 H   0  0
    3.5589   -3.4598    0.2106 H   0  0
    2.2147   -3.3569   -0.9257 H   0  0
    3.6951   -0.9869    0.3484 H   0  0
    3.4550   -1.6869   -2.5883 H   0  0
    5.4705   -2.4637   -0.7583 H   0  0
  1  3  1  0
  1  5  2  0
  2  4  2  0
  2  5  1  0
  3 13  2  0
  4 13  1  0
  5 12  1  0
  6  7  1  0
  6 11  1  0
  6 14  2  0
  7  8  1  0
  8  9  1  0
  9 10  1  0
 10 11  1  0
 11 12  1  0
 12 15  1  0
  1 16  1  0
  2 17  1  0
  3 18  1  0
  4 19  1  0
  7 20  1  0
  7 21  1  0
  8 22  1  0
  8 23  1  0
  9 24  1  0
  9 25  1  0
 10 26  1  0
 10 27  1  0
 11 28  1  0
 12 29  1  0
 15 30  1  0
M  END
> <Name>
BR020012

$$$$
BR020013
  SciTegic05062102053D

 33 34  0  0  1  0            999 V2000
   -2.0450   -6.3056   -4.4396 C   0  0
   -1.8701   -5.0055   -3.9654 C   0  0
   -1.2520   -7.3410   -3.9448 C   0  0
   -0.1092   -5.7762   -2.5018 C   0  0
   -0.9022   -4.7408   -2.9965 C   0  0
   -0.2841   -7.0763   -2.9760 C   0  0
   -2.2592   -3.7981   -0.5854 C   0  0
   -3.4662   -2.9131   -0.8125 C   0  0
   -3.2312   -1.5183   -0.2526 C   0  0
   -1.9326   -0.9100   -0.7734 C   0  0
   -0.7416   -1.8087   -0.4453 C   0  0
   -0.8998   -3.2376   -0.9735 C   0  0  2  0  0  0
   -0.7126   -3.3343   -2.4842 C   0  0  1  0  0  0
    0.5222   -8.1305   -2.4716 N   0  3
    0.3479   -9.2930   -2.9108 O   0  5
   -2.3838   -4.9591   -0.1950 O   0  0
    1.3874   -7.8710   -1.6006 O   0  0
    0.6088   -2.9097   -2.8085 O   0  0
   -2.7991   -6.5117   -5.1936 H   0  0
   -2.4918   -4.2047   -4.3565 H   0  0
   -1.3989   -8.3496   -4.3230 H   0  0
    0.6445   -5.5647   -1.7462 H   0  0
   -3.6700   -2.8531   -1.8884 H   0  0
   -4.3309   -3.3883   -0.3328 H   0  0
   -4.0700   -0.8667   -0.5305 H   0  0
   -3.2077   -1.5596    0.8428 H   0  0
   -2.0005   -0.7727   -1.8579 H   0  0
   -1.7824    0.0812   -0.3304 H   0  0
    0.1727   -1.3535   -0.8649 H   0  0
   -0.5975   -1.8302    0.6479 H   0  0
   -0.1512   -3.8962   -0.4969 H   0  0
   -1.4072   -2.6394   -2.9688 H   0  0
    0.6812   -2.9465   -3.7749 H   0  0
  1  2  1  0
  1  3  2  0
  2  5  2  0
  3  6  1  0
  4  5  1  0
  4  6  2  0
  5 13  1  0
  6 14  1  0
  7  8  1  0
  7 12  1  0
  7 16  2  0
  8  9  1  0
  9 10  1  0
 10 11  1  0
 11 12  1  0
 12 13  1  0
 13 18  1  0
 14 15  1  0
 14 17  2  0
  1 19  1  0
  2 20  1  0
  3 21  1  0
  4 22  1  0
  8 23  1  0
  8 24  1  0
  9 25  1  0
  9 26  1  0
 10 27  1  0
 10 28  1  0
 11 29  1  0
 11 30  1  0
 12 31  1  0
 13 32  1  0
 18 33  1  0
M  CHG  2  14   1  15  -1
M  END
> <Name>
BR020013

$$$$
BR020014
  SciTegic05062102053D

 33 34  0  0  1  0            999 V2000
    7.6265   -2.7981   -1.3940 C   0  0
    6.2820   -2.6994   -1.7516 C   0  0
    8.2089   -1.8161   -0.5925 C   0  0
    6.1020   -0.6369   -0.5064 C   0  0
    5.5197   -1.6189   -1.3078 C   0  0
    7.4466   -0.7356   -0.1487 C   0  0
    1.6842   -1.2778   -0.8866 C   0  0
    0.6724   -1.3349    0.2379 C   0  0
    0.8795   -2.5852    1.0801 C   0  0
    2.3238   -2.7106    1.5577 C   0  0
    3.2935   -2.7100    0.3768 C   0  0
    3.1448   -1.4495   -0.4807 C   0  0  1  0  0  0
    4.0653   -1.5118   -1.6955 C   0  0  1  0  0  0
    8.0392    0.2632    0.6681 N   0  3
    9.2500    0.1549    0.9793 O   0  5
    1.3377   -1.0161   -2.0375 O   0  0
    7.3360    1.2273    1.0564 O   0  0
    3.8888   -0.3242   -2.4636 O   0  0
    8.2199   -3.6398   -1.7391 H   0  0
    5.8363   -3.4685   -2.3767 H   0  0
    9.2578   -1.9054   -0.3211 H   0  0
    5.5033    0.2041   -0.1629 H   0  0
    0.7853   -0.4296    0.8438 H   0  0
   -0.3368   -1.3356   -0.1871 H   0  0
    0.2049   -2.5641    1.9432 H   0  0
    0.6179   -3.4721    0.4892 H   0  0
    2.5641   -1.8825    2.2353 H   0  0
    2.4420   -3.6383    2.1289 H   0  0
    4.3205   -2.7860    0.7532 H   0  0
    3.1102   -3.6035   -0.2345 H   0  0
    3.4140   -0.5673    0.1139 H   0  0
    3.7600   -2.3557   -2.3239 H   0  0
    2.9484   -0.2835   -2.6967 H   0  0
  1  2  1  0
  1  3  2  0
  2  5  2  0
  3  6  1  0
  4  5  1  0
  4  6  2  0
  5 13  1  0
  6 14  1  0
  7  8  1  0
  7 12  1  0
  7 16  2  0
  8  9  1  0
  9 10  1  0
 10 11  1  0
 11 12  1  0
 12 13  1  0
 13 18  1  0
 14 15  1  0
 14 17  2  0
  1 19  1  0
  2 20  1  0
  3 21  1  0
  4 22  1  0
  8 23  1  0
  8 24  1  0
  9 25  1  0
  9 26  1  0
 10 27  1  0
 10 28  1  0
 11 29  1  0
 11 30  1  0
 12 31  1  0
 13 32  1  0
 18 33  1  0
M  CHG  2  14   1  15  -1
M  END
> <Name>
BR020014

$$$$
BR020015
  SciTegic05062102053D

 33 34  0  0  1  0            999 V2000
   -0.3962    2.0269    5.9371 C   0  0
   -0.2347    0.7259    5.4607 C   0  0
   -1.4512    2.8133    5.4741 C   0  0
   -2.1830    0.9977    4.0581 C   0  0
   -1.1280    0.2113    4.5212 C   0  0
   -2.3445    2.2987    4.5345 C   0  0
   -0.6808   -2.6720    1.9741 C   0  0
   -0.3874   -2.8248    0.4970 C   0  0
    0.8203   -1.9876    0.1023 C   0  0
    0.6664   -0.5340    0.5419 C   0  0
    0.4363   -0.4392    2.0495 C   0  0
   -0.7935   -1.2402    2.4887 C   0  0  2  0  0  0
   -0.9527   -1.1958    4.0052 C   0  0  2  0  0  0
   -3.4190    3.0988    4.0642 N   0  3
   -3.5470    4.2661    4.5065 O   0  5
   -0.9038   -3.6545    2.6801 O   0  0
   -4.2112    2.6169    3.2187 O   0  0
   -2.1020   -1.9565    4.3687 O   0  0
    0.2991    2.4274    6.6691 H   0  0
    0.5902    0.1203    5.8264 H   0  0
   -1.5655    3.8255    5.8538 H   0  0
   -2.8771    0.5918    3.3252 H   0  0
   -0.1973   -3.8803    0.2758 H   0  0
   -1.2784   -2.5160   -0.0604 H   0  0
    1.7231   -2.4084    0.5626 H   0  0
    0.9620   -2.0331   -0.9833 H   0  0
    1.5677    0.0281    0.2725 H   0  0
   -0.1732   -0.0717    0.0089 H   0  0
    1.3298   -0.8083    2.5698 H   0  0
    0.3150    0.6137    2.3305 H   0  0
   -1.6939   -0.8097    2.0325 H   0  0
   -0.0828   -1.6797    4.4627 H   0  0
   -2.1500   -1.9386    5.3371 H   0  0
  1  2  1  0
  1  3  2  0
  2  5  2  0
  3  6  1  0
  4  5  1  0
  4  6  2  0
  5 13  1  0
  6 14  1  0
  7  8  1  0
  7 12  1  0
  7 16  2  0
  8  9  1  0
  9 10  1  0
 10 11  1  0
 11 12  1  0
 12 13  1  0
 13 18  1  0
 14 15  1  0
 14 17  2  0
  1 19  1  0
  2 20  1  0
  3 21  1  0
  4 22  1  0
  8 23  1  0
  8 24  1  0
  9 25  1  0
  9 26  1  0
 10 27  1  0
 10 28  1  0
 11 29  1  0
 11 30  1  0
 12 31  1  0
 13 32  1  0
 18 33  1  0
M  CHG  2  14   1  15  -1
M  END
> <Name>
BR020015

$$$$
BR020016
  SciTegic05062102053D

 33 34  0  0  1  0            999 V2000
    5.5266    1.8949   -2.5241 C   0  0
    4.6530    0.8090   -2.4672 C   0  0
    6.7581    1.8343   -1.8718 C   0  0
    6.2422   -0.3981   -1.1054 C   0  0
    5.0108   -0.3375   -1.7578 C   0  0
    7.1159    0.6878   -1.1624 C   0  0
    1.8758   -2.2699   -0.6905 C   0  0
    0.9533   -2.3818    0.5045 C   0  0
    1.7242   -2.8415    1.7333 C   0  0
    2.9473   -1.9657    1.9920 C   0  0
    3.8711   -1.9414    0.7751 C   0  0
    3.1448   -1.4495   -0.4807 C   0  0  1  0  0  0
    4.0653   -1.5118   -1.6955 C   0  0  2  0  0  0
    8.3699    0.6258   -0.4995 N   0  3
    9.1415    1.6132   -0.5642 O   0  5
    1.5587   -2.7415   -1.7815 O   0  0
    8.6722   -0.4147    0.1335 O   0  0
    4.8359   -2.7089   -1.6267 O   0  0
    5.2482    2.7873   -3.0771 H   0  0
    3.6954    0.8647   -2.9778 H   0  0
    7.4295    2.6877   -1.9245 H   0  0
    6.5166   -1.2945   -0.5532 H   0  0
    0.4935   -1.4022    0.6725 H   0  0
    0.1559   -3.0969    0.2766 H   0  0
    1.0657   -2.8252    2.6088 H   0  0
    2.0487   -3.8804    1.5944 H   0  0
    2.6285   -0.9452    2.2360 H   0  0
    3.4951   -2.3481    2.8607 H   0  0
    4.7300   -1.2936    0.9869 H   0  0
    4.2664   -2.9520    0.6082 H   0  0
    2.8287   -0.4084   -0.3377 H   0  0
    3.4487   -1.5720   -2.5990 H   0  0
    5.3786   -2.7344   -2.4299 H   0  0
  1  2  1  0
  1  3  2  0
  2  5  2  0
  3  6  1  0
  4  5  1  0
  4  6  2  0
  5 13  1  0
  6 14  1  0
  7  8  1  0
  7 12  1  0
  7 16  2  0
  8  9  1  0
  9 10  1  0
 10 11  1  0
 11 12  1  0
 12 13  1  0
 13 18  1  0
 14 15  1  0
 14 17  2  0
  1 19  1  0
  2 20  1  0
  3 21  1  0
  4 22  1  0
  8 23  1  0
  8 24  1  0
  9 25  1  0
  9 26  1  0
 10 27  1  0
 10 28  1  0
 11 29  1  0
 11 30  1  0
 12 31  1  0
 13 32  1  0
 18 33  1  0
M  CHG  2  14   1  15  -1
M  END
> <Name>
BR020016

$$$$
BR020017
  SciTegic05062102053D

 36 37  0  0  0  0            999 V2000
   -0.6427    1.4719   -0.1894 C   0  0
   -0.7374   -0.3937    1.3429 C   0  0
   -1.6275    2.1282    0.5488 C   0  0
   -1.7222    0.2627    2.0811 C   0  0
   -0.1977    0.2109    0.2076 C   0  0
   -2.1672    1.5237    1.6841 C   0  0
    0.5703   -1.2650   -1.5944 C   0  0
    1.7337   -1.8964   -2.2836 C   0  0
    0.8131   -0.4627   -0.5501 C   0  0
   -0.7977   -1.5483   -2.1367 C   0  0
    1.6355   -2.0541   -3.7864 C   0  0
   -0.8226   -1.5082   -3.6627 C   0  0
    0.2352   -2.4402   -4.2453 C   0  0
   -3.6323    3.4977    2.0265 C   0  0
   -3.7400    1.5614    3.6038 C   0  0
   -3.1629    2.1873    2.4306 N   0  0
    2.7557   -2.2037   -1.6734 O   0  0
   -0.2318    1.9557   -1.0723 H   0  0
   -0.4002   -1.3760    1.6648 H   0  0
   -1.9674    3.1105    0.2304 H   0  0
   -2.1354   -0.2177    2.9643 H   0  0
    1.8534   -0.2940   -0.2803 H   0  0
   -1.1129   -2.5418   -1.7933 H   0  0
   -1.5308   -0.8306   -1.7494 H   0  0
    1.9437   -1.1068   -4.2435 H   0  0
    2.3430   -2.8286   -4.1028 H   0  0
   -1.8145   -1.8079   -4.0202 H   0  0
   -0.6496   -0.4834   -4.0149 H   0  0
    0.1881   -2.4159   -5.3400 H   0  0
    0.0192   -3.4711   -3.9374 H   0  0
   -4.3992    3.8524    2.7199 H   0  0
   -4.0604    3.4525    1.0214 H   0  0
   -2.8039    4.2113    2.0228 H   0  0
   -4.4900    2.2195    4.0501 H   0  0
   -2.9625    1.3599    4.3456 H   0  0
   -4.2180    0.6166    3.3316 H   0  0
  1  3  1  0
  1  5  2  0
  2  4  2  0
  2  5  1  0
  3  6  2  0
  4  6  1  0
  5  9  1  0
  6 16  1  0
  7  8  1  0
  7  9  2  0
  7 10  1  0
  8 11  1  0
  8 17  2  0
 10 12  1  0
 11 13  1  0
 12 13  1  0
 14 16  1  0
 15 16  1  0
  1 18  1  0
  2 19  1  0
  3 20  1  0
  4 21  1  0
  9 22  1  0
 10 23  1  0
 10 24  1  0
 11 25  1  0
 11 26  1  0
 12 27  1  0
 12 28  1  0
 13 29  1  0
 13 30  1  0
 14 31  1  0
 14 32  1  0
 14 33  1  0
 15 34  1  0
 15 35  1  0
 15 36  1  0
M  END
> <Name>
BR020017

$$$$
BR020018
  SciTegic05062102053D

 35 36  0  0  0  0            999 V2000
    0.7693    2.7918   -1.2138 C   0  0
    1.3831    2.3386   -0.0462 C   0  0
   -0.2139    2.0179   -1.8304 C   0  0
    1.0139    1.1115    0.5048 C   0  0
   -0.5832    0.7909   -1.2795 C   0  0
    0.0307    0.3376   -0.1118 C   0  0
    0.2459   -2.0883    0.1751 C   0  0
   -0.2321   -3.3451    0.8232 C   0  0
   -0.3486   -0.9223    0.4533 C   0  0
   -2.5697   -4.8845    2.8227 C   0  0
    1.4244   -2.2527   -0.7354 C   0  0
    0.7772   -4.4743    0.9170 C   0  0
    2.5934   -2.9778   -0.0605 C   0  0
    2.1845   -3.9131    1.0824 C   0  0
   -1.4382   -3.5044    1.2629 N   0  0
   -3.2429   -3.7665    3.2362 N   0  0
   -1.6539   -4.7212    1.8133 N   0  0
   -2.8501   -6.3798    3.5153 S   0  0
    1.0558    3.7477   -1.6421 H   0  0
    2.1479    2.9415    0.4348 H   0  0
   -0.6928    2.3712   -2.7389 H   0  0
    1.5016    0.7715    1.4154 H   0  0
   -1.3512    0.1991   -1.7718 H   0  0
   -1.1585   -0.9339    1.1801 H   0  0
    1.1444   -2.8012   -1.6469 H   0  0
    1.7573   -1.2561   -1.0629 H   0  0
    0.5392   -5.1192    1.7631 H   0  0
    0.7031   -5.0664    0.0031 H   0  0
    3.1592   -3.5575   -0.8206 H   0  0
    3.3125   -2.2261    0.3248 H   0  0
    2.2521   -3.3640    2.0371 H   0  0
    2.9056   -4.7434    1.1514 H   0  0
   -3.0713   -2.8598    2.8148 H   0  0
   -3.9345   -3.8089    3.9772 H   0  0
   -1.1212   -5.5097    1.4588 H   0  0
  1  2  2  0
  1  3  1  0
  2  4  1  0
  3  5  2  0
  4  6  2  0
  5  6  1  0
  6  9  1  0
  7  8  1  0
  7  9  2  0
  7 11  1  0
  8 12  1  0
  8 15  2  0
 10 16  1  0
 10 17  1  0
 10 18  2  0
 11 13  1  0
 12 14  1  0
 13 14  1  0
 15 17  1  0
  1 19  1  0
  2 20  1  0
  3 21  1  0
  4 22  1  0
  5 23  1  0
  9 24  1  0
 11 25  1  0
 11 26  1  0
 12 27  1  0
 12 28  1  0
 13 29  1  0
 13 30  1  0
 14 31  1  0
 14 32  1  0
 16 33  1  0
 16 34  1  0
 17 35  1  0
M  END
> <Name>
BR020018

$$$$
BR020019
  SciTegic05062102053D

 37 38  0  0  1  0            999 V2000
   -1.6414    2.6257    5.5459 C   0  0
    0.7293    2.5053    5.9332 C   0  0
   -1.7167    3.5048    6.6142 C   0  0
    0.5478    3.3899    6.9840 C   0  0
   -0.3914    2.1209    5.2053 C   0  0
    0.8451    0.6598    1.8600 C   0  0
    1.7594   -2.5634    1.0786 C   0  0
    0.1663    0.9394    0.5375 C   0  0
   -1.1599    1.6455    0.7743 C   0  0
   -1.0089    2.9471    1.5671 C   0  0
    0.2742    3.0217    2.3995 C   0  0
    0.7075    1.6741    2.9817 C   0  0  1  0  0  0
   -0.2516    1.1595    4.0511 C   0  0  1  0  0  0
   -0.6505    3.9013    7.3447 N   0  0
    1.5565   -0.4056    2.0400 N   0  0
    1.8364   -3.0606    2.3517 N   0  0
    1.6167   -1.2042    0.9493 N   0  0
    0.2455   -0.0788    4.5515 O   0  0
    1.8356   -3.5653   -0.2573 S   0  0
   -2.5349    2.3448    4.9987 H   0  0
    1.7174    2.1291    5.6917 H   0  0
   -2.6687    3.9258    6.9208 H   0  0
    1.3901    3.7207    7.5827 H   0  0
    0.8174    1.5561   -0.0908 H   0  0
    0.0102   -0.0145    0.0228 H   0  0
   -1.6336    1.8713   -0.1949 H   0  0
   -1.8480    0.9707    1.3059 H   0  0
   -1.0339    3.8023    0.8641 H   0  0
   -1.8912    3.0841    2.2226 H   0  0
    1.0793    3.4022    1.7545 H   0  0
    0.1474    3.7593    3.2027 H   0  0
    1.6921    1.8123    3.4539 H   0  0
   -1.2213    0.9577    3.5836 H   0  0
    1.7901   -2.4510    3.1612 H   0  0
    1.9425   -4.0543    2.5263 H   0  0
    1.5523   -0.7706    0.0334 H   0  0
    0.3242   -0.6732    3.7894 H   0  0
  1  3  1  0
  1  5  2  0
  2  4  2  0
  2  5  1  0
  3 14  2  0
  4 14  1  0
  5 13  1  0
  6  8  1  0
  6 12  1  0
  6 15  2  0
  7 16  1  0
  7 17  1  0
  7 19  2  0
  8  9  1  0
  9 10  1  0
 10 11  1  0
 11 12  1  0
 12 13  1  0
 13 18  1  0
 15 17  1  0
  1 20  1  0
  2 21  1  0
  3 22  1  0
  4 23  1  0
  8 24  1  0
  8 25  1  0
  9 26  1  0
  9 27  1  0
 10 28  1  0
 10 29  1  0
 11 30  1  0
 11 31  1  0
 12 32  1  0
 13 33  1  0
 16 34  1  0
 16 35  1  0
 17 36  1  0
 18 37  1  0
M  END
> <Name>
BR020019

$$$$
BR020020
  SciTegic05062102053D

 37 38  0  0  1  0            999 V2000
   -2.0429   -0.3446    2.8251 C   0  0
   -1.4076   -2.5020    3.6775 C   0  0
   -2.0722    0.1046    4.1355 C   0  0
   -1.4651   -1.9562    4.9497 C   0  0
   -1.7034   -1.6741    2.6003 C   0  0
    0.7762   -1.7157    0.9885 C   0  0
    3.6343   -0.7969    2.6674 C   0  0
    0.8774   -0.6507   -0.0786 C   0  0
    0.9392   -1.3024   -1.4536 C   0  0
   -0.2123   -2.2833   -1.6690 C   0  0
   -0.2338   -3.3604   -0.5828 C   0  0
   -0.2870   -2.7868    0.8375 C   0  0  2  0  0  0
   -1.6568   -2.2164    1.1932 C   0  0  1  0  0  0
   -1.7910   -0.6697    5.2075 N   0  0
    1.5406   -1.7097    2.0315 N   0  0
    3.9212   -2.0048    3.2441 N   0  0
    2.4117   -0.6746    2.0554 N   0  0
   -2.6270   -3.2536    1.0759 O   0  0
    4.7230    0.4711    2.7068 S   0  0
   -2.2799    0.3266    2.0066 H   0  0
   -1.1392   -3.5430    3.5343 H   0  0
   -2.3323    1.1329    4.3644 H   0  0
   -1.2432   -2.5602    5.8233 H   0  0
    0.0018    0.0023    0.0001 H   0  0
    1.7689   -0.0374    0.0895 H   0  0
    0.9150   -0.5290   -2.2295 H   0  0
    1.8912   -1.8372   -1.5623 H   0  0
   -1.1648   -1.7412   -1.6828 H   0  0
   -0.1051   -2.7597   -2.6503 H   0  0
   -1.0814   -4.0352   -0.7505 H   0  0
    0.6752   -3.9684   -0.6827 H   0  0
   -0.0698   -3.6012    1.5403 H   0  0
   -1.9146   -1.4431    0.4616 H   0  0
    3.2592   -2.7731    3.2193 H   0  0
    4.8045   -2.1703    3.7147 H   0  0
    2.1365    0.1941    1.6074 H   0  0
   -3.4873   -2.8506    1.2706 H   0  0
  1  3  1  0
  1  5  2  0
  2  4  2  0
  2  5  1  0
  3 14  2  0
  4 14  1  0
  5 13  1  0
  6  8  1  0
  6 12  1  0
  6 15  2  0
  7 16  1  0
  7 17  1  0
  7 19  2  0
  8  9  1  0
  9 10  1  0
 10 11  1  0
 11 12  1  0
 12 13  1  0
 13 18  1  0
 15 17  1  0
  1 20  1  0
  2 21  1  0
  3 22  1  0
  4 23  1  0
  8 24  1  0
  8 25  1  0
  9 26  1  0
  9 27  1  0
 10 28  1  0
 10 29  1  0
 11 30  1  0
 11 31  1  0
 12 32  1  0
 13 33  1  0
 16 34  1  0
 16 35  1  0
 17 36  1  0
 18 37  1  0
M  END
> <Name>
BR020020

$$$$
BR020021
  SciTegic05062102053D

 37 38  0  0  1  0            999 V2000
   -0.1381   -1.1290    5.0832 C   0  0
    1.5364    0.4891    5.6849 C   0  0
    0.4961   -2.0213    5.9326 C   0  0
    2.0955   -0.4755    6.5075 C   0  0
    0.3982    0.1481    4.9626 C   0  0
    0.8451    0.6598    1.8600 C   0  0
    1.7594   -2.5634    1.0786 C   0  0
    0.1663    0.9394    0.5375 C   0  0
   -1.1599    1.6455    0.7743 C   0  0
   -1.0089    2.9471    1.5671 C   0  0
    0.2742    3.0217    2.3995 C   0  0
    0.7075    1.6741    2.9817 C   0  0  1  0  0  0
   -0.2516    1.1595    4.0511 C   0  0  2  0  0  0
    1.6030   -1.7264    6.6504 N   0  0
    1.5565   -0.4056    2.0400 N   0  0
    1.8364   -3.0606    2.3517 N   0  0
    1.6167   -1.2042    0.9493 N   0  0
   -0.6926    2.2614    4.8399 O   0  0
    1.8356   -3.5653   -0.2573 S   0  0
   -1.0243   -1.4265    4.5328 H   0  0
    1.9780    1.4770    5.6121 H   0  0
    0.1180   -3.0303    6.0609 H   0  0
    2.9837   -0.2593    7.0919 H   0  0
    0.8174    1.5561   -0.0908 H   0  0
    0.0102   -0.0145    0.0228 H   0  0
   -1.6336    1.8713   -0.1949 H   0  0
   -1.8480    0.9707    1.3059 H   0  0
   -1.0339    3.8023    0.8641 H   0  0
   -1.8912    3.0841    2.2226 H   0  0
    1.0793    3.4022    1.7545 H   0  0
    0.1474    3.7593    3.2027 H   0  0
    1.6921    1.8123    3.4539 H   0  0
   -1.1331    0.7383    3.5560 H   0  0
    1.7901   -2.4510    3.1612 H   0  0
    1.9425   -4.0543    2.5263 H   0  0
    1.5523   -0.7706    0.0334 H   0  0
   -1.3267    1.9057    5.4816 H   0  0
  1  3  1  0
  1  5  2  0
  2  4  2  0
  2  5  1  0
  3 14  2  0
  4 14  1  0
  5 13  1  0
  6  8  1  0
  6 12  1  0
  6 15  2  0
  7 16  1  0
  7 17  1  0
  7 19  2  0
  8  9  1  0
  9 10  1  0
 10 11  1  0
 11 12  1  0
 12 13  1  0
 13 18  1  0
 15 17  1  0
  1 20  1  0
  2 21  1  0
  3 22  1  0
  4 23  1  0
  8 24  1  0
  8 25  1  0
  9 26  1  0
  9 27  1  0
 10 28  1  0
 10 29  1  0
 11 30  1  0
 11 31  1  0
 12 32  1  0
 13 33  1  0
 16 34  1  0
 16 35  1  0
 17 36  1  0
 18 37  1  0
M  END
> <Name>
BR020021

$$$$
BR020022
  SciTegic05062102053D

 37 38  0  0  1  0            999 V2000
   -3.8332   -3.0458    0.2494 C   0  0
   -2.6771   -4.4163    1.8524 C   0  0
   -4.8100   -4.0270    0.1956 C   0  0
   -3.7058   -5.3361    1.7269 C   0  0
   -2.7497   -3.2518    1.0961 C   0  0
    0.7762   -1.7157    0.9885 C   0  0
    3.6334   -0.7953    2.6681 C   0  0
    0.8774   -0.6507   -0.0786 C   0  0
    0.9392   -1.3024   -1.4536 C   0  0
   -0.2123   -2.2833   -1.6690 C   0  0
   -0.2338   -3.3604   -0.5828 C   0  0
   -0.2870   -2.7868    0.8375 C   0  0  2  0  0  0
   -1.6568   -2.2164    1.1932 C   0  0  2  0  0  0
   -4.7741   -5.1709    0.9151 N   0  0
    1.5406   -1.7097    2.0315 N   0  0
    3.9215   -2.0034    3.2438 N   0  0
    2.4107   -0.6737    2.0562 N   0  0
   -1.6160   -1.7261    2.5307 O   0  0
    4.7208    0.4737    2.7084 S   0  0
   -3.9189   -2.1486   -0.3543 H   0  0
   -1.8450   -4.6055    2.5217 H   0  0
   -5.6749   -3.9148   -0.4501 H   0  0
   -3.6961   -6.2603    2.2952 H   0  0
    0.0018    0.0023    0.0001 H   0  0
    1.7689   -0.0374    0.0895 H   0  0
    0.9150   -0.5290   -2.2295 H   0  0
    1.8912   -1.8372   -1.5623 H   0  0
   -1.1648   -1.7412   -1.6828 H   0  0
   -0.1051   -2.7597   -2.6503 H   0  0
   -1.0814   -4.0352   -0.7505 H   0  0
    0.6752   -3.9684   -0.6827 H   0  0
   -0.0698   -3.6012    1.5403 H   0  0
   -1.8603   -1.3625    0.5381 H   0  0
    3.2602   -2.7722    3.2185 H   0  0
    4.8050   -2.1682    3.7144 H   0  0
    2.1346    0.1950    1.6088 H   0  0
   -2.4867   -1.3383    2.7096 H   0  0
  1  3  1  0
  1  5  2  0
  2  4  2  0
  2  5  1  0
  3 14  2  0
  4 14  1  0
  5 13  1  0
  6  8  1  0
  6 12  1  0
  6 15  2  0
  7 16  1  0
  7 17  1  0
  7 19  2  0
  8  9  1  0
  9 10  1  0
 10 11  1  0
 11 12  1  0
 12 13  1  0
 13 18  1  0
 15 17  1  0
  1 20  1  0
  2 21  1  0
  3 22  1  0
  4 23  1  0
  8 24  1  0
  8 25  1  0
  9 26  1  0
  9 27  1  0
 10 28  1  0
 10 29  1  0
 11 30  1  0
 11 31  1  0
 12 32  1  0
 13 33  1  0
 16 34  1  0
 16 35  1  0
 17 36  1  0
 18 37  1  0
M  END
> <Name>
BR020022

$$$$
BR020023
  SciTegic05062102053D

 40 41  0  0  1  0            999 V2000
   -1.7762    3.5138    6.6121 C   0  0
   -1.6468    2.6255    5.5445 C   0  0
   -0.6502    3.8976    7.3405 C   0  0
    0.7346    2.5047    5.9337 C   0  0
   -0.3914    2.1209    5.2053 C   0  0
    0.6052    3.3931    7.0013 C   0  0
    0.8451    0.6598    1.8600 C   0  0
    1.7594   -2.5634    1.0786 C   0  0
    0.1663    0.9394    0.5375 C   0  0
   -1.1599    1.6455    0.7743 C   0  0
   -1.0089    2.9471    1.5671 C   0  0
    0.2742    3.0217    2.3995 C   0  0
    0.7075    1.6741    2.9817 C   0  0  1  0  0  0
   -0.2516    1.1595    4.0511 C   0  0  1  0  0  0
    1.5565   -0.4056    2.0400 N   0  0
    1.8364   -3.0606    2.3517 N   0  0
    1.6167   -1.2042    0.9493 N   0  0
    1.7514    3.7848    7.7420 N   0  3
    1.6132    4.5858    8.6980 O   0  5
    2.8714    3.3190    7.4208 O   0  0
    0.2455   -0.0788    4.5515 O   0  0
    1.8356   -3.5653   -0.2573 S   0  0
   -2.7537    3.9072    6.8757 H   0  0
   -2.5292    2.3314    4.9826 H   0  0
   -0.7653    4.5908    8.1701 H   0  0
    1.7116    2.1083    5.6654 H   0  0
    0.8174    1.5561   -0.0908 H   0  0
    0.0102   -0.0145    0.0228 H   0  0
   -1.6336    1.8713   -0.1949 H   0  0
   -1.8480    0.9707    1.3059 H   0  0
   -1.0339    3.8023    0.8641 H   0  0
   -1.8912    3.0841    2.2226 H   0  0
    1.0793    3.4022    1.7545 H   0  0
    0.1474    3.7593    3.2027 H   0  0
    1.6921    1.8123    3.4539 H   0  0
   -1.2213    0.9577    3.5836 H   0  0
    1.7901   -2.4510    3.1612 H   0  0
    1.9425   -4.0543    2.5263 H   0  0
    1.5523   -0.7706    0.0334 H   0  0
    0.3242   -0.6732    3.7894 H   0  0
  1  2  1  0
  1  3  2  0
  2  5  2  0
  3  6  1  0
  4  5  1  0
  4  6  2  0
  5 14  1  0
  6 18  1  0
  7  9  1  0
  7 13  1  0
  7 15  2  0
  8 16  1  0
  8 17  1  0
  8 22  2  0
  9 10  1  0
 10 11  1  0
 11 12  1  0
 12 13  1  0
 13 14  1  0
 14 21  1  0
 15 17  1  0
 18 19  1  0
 18 20  2  0
  1 23  1  0
  2 24  1  0
  3 25  1  0
  4 26  1  0
  9 27  1  0
  9 28  1  0
 10 29  1  0
 10 30  1  0
 11 31  1  0
 11 32  1  0
 12 33  1  0
 12 34  1  0
 13 35  1  0
 14 36  1  0
 16 37  1  0
 16 38  1  0
 17 39  1  0
 21 40  1  0
M  CHG  2  18   1  19  -1
M  END
> <Name>
BR020023

$$$$
BR020024
  SciTegic05062102053D

 40 41  0  0  1  0            999 V2000
   -2.0882    0.1613    4.1234 C   0  0
   -2.0444   -0.3399    2.8225 C   0  0
   -1.7910   -0.6716    5.2022 C   0  0
   -1.4062   -2.5070    3.6790 C   0  0
   -1.7034   -1.6741    2.6003 C   0  0
   -1.4501   -2.0057    4.9800 C   0  0
    0.7762   -1.7157    0.9885 C   0  0
    3.6343   -0.7969    2.6674 C   0  0
    0.8774   -0.6507   -0.0786 C   0  0
    0.9392   -1.3024   -1.4536 C   0  0
   -0.2123   -2.2833   -1.6690 C   0  0
   -0.2338   -3.3604   -0.5828 C   0  0
   -0.2870   -2.7868    0.8375 C   0  0  2  0  0  0
   -1.6568   -2.2164    1.1932 C   0  0  1  0  0  0
    1.5406   -1.7097    2.0315 N   0  0
    3.9212   -2.0048    3.2441 N   0  0
    2.4117   -0.6746    2.0554 N   0  0
   -1.1464   -2.8531    6.0780 N   0  3
   -1.1906   -2.3820    7.2402 O   0  5
   -0.8424   -4.0502    5.8563 O   0  0
   -2.6270   -3.2536    1.0759 O   0  0
    4.7230    0.4711    2.7068 S   0  0
   -2.3531    1.2004    4.2964 H   0  0
   -2.2778    0.3157    1.9879 H   0  0
   -1.8289   -0.2679    6.2109 H   0  0
   -1.1410   -3.5469    3.5005 H   0  0
    0.0018    0.0023    0.0001 H   0  0
    1.7689   -0.0374    0.0895 H   0  0
    0.9150   -0.5290   -2.2295 H   0  0
    1.8912   -1.8372   -1.5623 H   0  0
   -1.1648   -1.7412   -1.6828 H   0  0
   -0.1051   -2.7597   -2.6503 H   0  0
   -1.0814   -4.0352   -0.7505 H   0  0
    0.6752   -3.9684   -0.6827 H   0  0
   -0.0698   -3.6012    1.5403 H   0  0
   -1.9146   -1.4431    0.4616 H   0  0
    3.2592   -2.7731    3.2193 H   0  0
    4.8045   -2.1703    3.7147 H   0  0
    2.1365    0.1941    1.6074 H   0  0
   -2.5730   -3.5806    0.1645 H   0  0
  1  2  1  0
  1  3  2  0
  2  5  2  0
  3  6  1  0
  4  5  1  0
  4  6  2  0
  5 14  1  0
  6 18  1  0
  7  9  1  0
  7 13  1  0
  7 15  2  0
  8 16  1  0
  8 17  1  0
  8 22  2  0
  9 10  1  0
 10 11  1  0
 11 12  1  0
 12 13  1  0
 13 14  1  0
 14 21  1  0
 15 17  1  0
 18 19  1  0
 18 20  2  0
  1 23  1  0
  2 24  1  0
  3 25  1  0
  4 26  1  0
  9 27  1  0
  9 28  1  0
 10 29  1  0
 10 30  1  0
 11 31  1  0
 11 32  1  0
 12 33  1  0
 12 34  1  0
 13 35  1  0
 14 36  1  0
 16 37  1  0
 16 38  1  0
 17 39  1  0
 21 40  1  0
M  CHG  2  18   1  19  -1
M  END
> <Name>
BR020024

$$$$
BR020025
  SciTegic05062102053D

 40 41  0  0  1  0            999 V2000
   -3.0984   -0.4056   -6.0197 C   0  0
   -2.4844   -1.0515   -4.9467 C   0  0
   -2.3297    0.0574   -7.0876 C   0  0
   -0.3328   -0.7713   -6.0093 C   0  0
   -1.1016   -1.2343   -4.9415 C   0  0
   -0.9468   -0.1254   -7.0824 C   0  0
    0.2649   -1.6144   -1.3550 C   0  0
    1.2002   -4.2558    0.3639 C   0  0
    0.7827   -0.7258   -0.2469 C   0  0
    2.0429   -0.0129   -0.7212 C   0  0
    1.8139    0.7168   -2.0450 C   0  0
    1.3070   -0.2362   -3.1300 C   0  0
    0.0198   -0.9541   -2.7036 C   0  0  1  0  0  0
   -0.4374   -1.9322   -3.7805 C   0  0  2  0  0  0
    0.0221   -2.8687   -1.1557 N   0  0
    1.8407   -4.7987   -0.7173 N   0  0
    0.2767   -3.2724    0.1105 N   0  0
   -0.1646    0.3449   -8.1699 N   0  3
   -0.7369    0.9223   -9.1258 O   0  5
    1.0778    0.1706   -8.1454 O   0  0
    0.6987   -2.6406   -4.2686 O   0  0
    1.5276   -4.7672    1.9214 S   0  0
   -4.1752   -0.2638   -6.0240 H   0  0
   -3.0907   -1.4087   -4.1186 H   0  0
   -2.8211    0.5590   -7.9175 H   0  0
    0.7455   -0.9162   -6.0005 H   0  0
    0.0193    0.0026    0.0339 H   0  0
    0.9969   -1.3493    0.6237 H   0  0
    2.3611    0.7117    0.0381 H   0  0
    2.8556   -0.7381   -0.8355 H   0  0
    1.0806    1.5189   -1.8953 H   0  0
    2.7445    1.1984   -2.3698 H   0  0
    1.1031    0.3448   -4.0313 H   0  0
    2.0819   -0.9612   -3.3759 H   0  0
   -0.7563   -0.1829   -2.5914 H   0  0
   -1.1088   -2.6666   -3.3227 H   0  0
    1.6405   -4.4872   -1.6617 H   0  0
    2.5356   -5.5298   -0.6087 H   0  0
   -0.2331   -2.8271    0.8674 H   0  0
    1.1026   -3.0768   -3.5024 H   0  0
  1  2  1  0
  1  3  2  0
  2  5  2  0
  3  6  1  0
  4  5  1  0
  4  6  2  0
  5 14  1  0
  6 18  1  0
  7  9  1  0
  7 13  1  0
  7 15  2  0
  8 16  1  0
  8 17  1  0
  8 22  2  0
  9 10  1  0
 10 11  1  0
 11 12  1  0
 12 13  1  0
 13 14  1  0
 14 21  1  0
 15 17  1  0
 18 19  1  0
 18 20  2  0
  1 23  1  0
  2 24  1  0
  3 25  1  0
  4 26  1  0
  9 27  1  0
  9 28  1  0
 10 29  1  0
 10 30  1  0
 11 31  1  0
 11 32  1  0
 12 33  1  0
 12 34  1  0
 13 35  1  0
 14 36  1  0
 16 37  1  0
 16 38  1  0
 17 39  1  0
 21 40  1  0
M  CHG  2  18   1  19  -1
M  END
> <Name>
BR020025

$$$$
BR020026
  SciTegic05062102053D

 40 41  0  0  1  0            999 V2000
   -4.8455   -3.9998    0.1553 C   0  0
   -3.8354   -3.0421    0.2458 C   0  0
   -4.7700   -5.1671    0.9152 C   0  0
   -2.6742   -4.4191    1.8560 C   0  0
   -2.7497   -3.2518    1.0961 C   0  0
   -3.6843   -5.3768    1.7655 C   0  0
    0.7762   -1.7157    0.9885 C   0  0
    3.6334   -0.7953    2.6681 C   0  0
    0.8774   -0.6507   -0.0786 C   0  0
    0.9392   -1.3024   -1.4536 C   0  0
   -0.2123   -2.2833   -1.6690 C   0  0
   -0.2338   -3.3604   -0.5828 C   0  0
   -0.2870   -2.7868    0.8375 C   0  0  2  0  0  0
   -1.6568   -2.2164    1.1932 C   0  0  2  0  0  0
    1.5406   -1.7097    2.0315 N   0  0
    3.9215   -2.0034    3.2438 N   0  0
    2.4107   -0.6737    2.0562 N   0  0
   -3.6082   -6.5644    2.5398 N   0  3
   -4.5281   -7.4126    2.4445 O   0  5
   -2.6229   -6.7337    3.2982 O   0  0
   -1.6160   -1.7261    2.5307 O   0  0
    4.7208    0.4737    2.7084 S   0  0
   -5.6912   -3.8362   -0.5063 H   0  0
   -3.9018   -2.1358   -0.3501 H   0  0
   -5.5643   -5.9051    0.8352 H   0  0
   -1.8253   -4.5781    2.5176 H   0  0
    0.0018    0.0023    0.0001 H   0  0
    1.7689   -0.0374    0.0895 H   0  0
    0.9150   -0.5290   -2.2295 H   0  0
    1.8912   -1.8372   -1.5623 H   0  0
   -1.1648   -1.7412   -1.6828 H   0  0
   -0.1051   -2.7597   -2.6503 H   0  0
   -1.0814   -4.0352   -0.7505 H   0  0
    0.6752   -3.9684   -0.6827 H   0  0
   -0.0698   -3.6012    1.5403 H   0  0
   -1.8603   -1.3625    0.5381 H   0  0
    3.2602   -2.7722    3.2185 H   0  0
    4.8050   -2.1682    3.7144 H   0  0
    2.1346    0.1950    1.6088 H   0  0
   -0.9069   -1.0653    2.5612 H   0  0
  1  2  1  0
  1  3  2  0
  2  5  2  0
  3  6  1  0
  4  5  1  0
  4  6  2  0
  5 14  1  0
  6 18  1  0
  7  9  1  0
  7 13  1  0
  7 15  2  0
  8 16  1  0
  8 17  1  0
  8 22  2  0
  9 10  1  0
 10 11  1  0
 11 12  1  0
 12 13  1  0
 13 14  1  0
 14 21  1  0
 15 17  1  0
 18 19  1  0
 18 20  2  0
  1 23  1  0
  2 24  1  0
  3 25  1  0
  4 26  1  0
  9 27  1  0
  9 28  1  0
 10 29  1  0
 10 30  1  0
 11 31  1  0
 11 32  1  0
 12 33  1  0
 12 34  1  0
 13 35  1  0
 14 36  1  0
 16 37  1  0
 16 38  1  0
 17 39  1  0
 21 40  1  0
M  CHG  2  18   1  19  -1
M  END
> <Name>
BR020026

$$$$
BR020027
  SciTegic05062102053D

 33 33  0  0  0  0            999 V2000
   -1.9657    4.5308   -1.5221 C   0  0
   -2.2322    5.8954   -1.6337 C   0  0
   -0.6492    4.9499    0.4598 C   0  0
   -1.1743    4.0580   -0.4753 C   0  0
   -1.7071    6.7873   -0.6985 C   0  0
   -0.9156    6.3145    0.3482 C   0  0
   -0.8952    2.6162   -0.3562 C   0  0
   -0.4931    2.0080    0.7686 C   0  0
   -0.2679    0.5313    0.7789 C   0  0
    0.7754   -2.0993   -1.3471 C   0  0
   -0.5147   -0.1553    2.1050 C   0  0
    0.4017    6.6135    2.3056 C   0  0
    0.1388   -0.0717   -0.3007 N   0  0
    0.9808   -1.3757   -2.4909 N   0  0
    0.3449   -1.4072   -0.2422 N   0  0
   -1.9748    8.1175   -0.8188 O   0  0
   -0.3968    7.1767    1.2667 O   0  0
    1.0363   -3.7496   -1.2972 S   0  0
   -2.3829    3.8476   -2.2580 H   0  0
   -2.8494    6.2572   -2.4516 H   0  0
   -0.0313    4.5898    1.2796 H   0  0
   -1.0606    2.0348   -1.2605 H   0  0
   -0.3576    2.5317    1.7080 H   0  0
   -1.5591   -0.4744    2.1658 H   0  0
    0.1218   -1.0375    2.2192 H   0  0
   -0.2891    0.5328    2.9249 H   0  0
    0.7522    7.4085    2.9683 H   0  0
    1.2537    6.0878    1.8672 H   0  0
   -0.2051    5.9070    2.8770 H   0  0
    0.8215   -0.3742   -2.5188 H   0  0
    1.2984   -1.8179   -3.3469 H   0  0
    0.1776   -1.8909    0.6321 H   0  0
   -2.5349    8.2779   -1.5945 H   0  0
  1  2  2  0
  1  4  1  0
  2  5  1  0
  3  4  2  0
  3  6  1  0
  4  7  1  0
  5  6  2  0
  5 16  1  0
  6 17  1  0
  7  8  2  0
  8  9  1  0
  9 11  1  0
  9 13  2  0
 10 14  1  0
 10 15  1  0
 10 18  2  0
 12 17  1  0
 13 15  1  0
  1 19  1  0
  2 20  1  0
  3 21  1  0
  7 22  1  0
  8 23  1  0
 11 24  1  0
 11 25  1  0
 11 26  1  0
 12 27  1  0
 12 28  1  0
 12 29  1  0
 14 30  1  0
 14 31  1  0
 15 32  1  0
 16 33  1  0
M  END
> <Name>
BR020027

$$$$
BR020028
  SciTegic05062102053D

 23 22  0  0  0  0            999 V2000
    0.3797    0.5969   -0.1563 C   0  0
    1.1500    3.9594    0.4308 C   0  0
   -0.1745   -1.8405   -0.5907 C   0  0
    2.1658   -0.9696   -0.8205 C   0  0
    0.3998   -0.2755   -2.4639 C   0  0
    0.6804   -0.6354   -1.0004 C   0  0
    0.9919    1.7209   -0.3396 N   0  0
    2.1125    4.1586   -0.5222 N   0  0
    0.5954    2.7056    0.5012 N   0  0
    0.6718    5.1861    1.4606 S   0  0
   -0.3950    0.4755    0.6253 H   0  0
    0.0550   -2.7165   -1.2077 H   0  0
   -1.2439   -1.6266   -0.7006 H   0  0
   -0.0007   -2.1157    0.4560 H   0  0
    2.4489   -1.8519   -1.4051 H   0  0
    2.3993   -1.1717    0.2313 H   0  0
    2.8039   -0.1371   -1.1388 H   0  0
    0.5974   -1.1242   -3.1292 H   0  0
   -0.6437    0.0265   -2.6063 H   0  0
    1.0393    0.5507   -2.7959 H   0  0
    2.4010    3.4129   -1.1465 H   0  0
    2.5675    5.0583   -0.6344 H   0  0
   -0.1248    2.4906    1.1838 H   0  0
  1  6  1  0
  1  7  2  0
  2  8  1  0
  2  9  1  0
  2 10  2  0
  3  6  1  0
  4  6  1  0
  5  6  1  0
  7  9  1  0
  1 11  1  0
  3 12  1  0
  3 13  1  0
  3 14  1  0
  4 15  1  0
  4 16  1  0
  4 17  1  0
  5 18  1  0
  5 19  1  0
  5 20  1  0
  8 21  1  0
  8 22  1  0
  9 23  1  0
M  END
> <Name>
BR020028

$$$$
BR020029
  SciTegic05062102053D

 26 25  0  0  0  0            999 V2000
    0.2942   -0.2636   -0.3312 C   0  0
   -1.8988    2.5091   -0.5070 C   0  0
    1.7776    0.1042   -2.3099 C   0  0
    0.5047   -3.4373    1.9127 C   0  0
    1.6440    0.2501   -0.8049 C   0  0
    0.2096   -1.7348    0.0503 C   0  0
    0.5913   -1.9722    1.5093 C   0  0
   -0.7987    0.4315   -0.2289 N   0  0
   -3.0418    1.8970   -0.0679 N   0  0
   -0.7668    1.7357   -0.5794 N   0  0
   -1.8810    4.1249   -0.9346 S   0  0
    1.0044    0.6706   -2.8382 H   0  0
    2.7544    0.4688   -2.6422 H   0  0
    1.6831   -0.9441   -2.6121 H   0  0
   -0.5080   -3.8294    1.7790 H   0  0
    1.1935   -4.0497    1.3224 H   0  0
    0.7696   -3.5522    2.9687 H   0  0
    2.4344   -0.3304   -0.3166 H   0  0
    1.7891    1.2889   -0.4945 H   0  0
   -0.8034   -2.1046   -0.1466 H   0  0
    0.8898   -2.2931   -0.6028 H   0  0
    1.6216   -1.6300    1.6618 H   0  0
   -0.0454   -1.3799    2.1761 H   0  0
   -3.0504    0.9164    0.1918 H   0  0
   -3.9166    2.4044    0.0117 H   0  0
    0.1027    2.1347   -0.9106 H   0  0
  1  5  1  0
  1  6  1  0
  1  8  2  0
  2  9  1  0
  2 10  1  0
  2 11  2  0
  3  5  1  0
  4  7  1  0
  6  7  1  0
  8 10  1  0
  3 12  1  0
  3 13  1  0
  3 14  1  0
  4 15  1  0
  4 16  1  0
  4 17  1  0
  5 18  1  0
  5 19  1  0
  6 20  1  0
  6 21  1  0
  7 22  1  0
  7 23  1  0
  9 24  1  0
  9 25  1  0
 10 26  1  0
M  END
> <Name>
BR020029

$$$$
BR020030
  SciTegic05062102053D

 26 25  0  0  0  0            999 V2000
    0.2942   -0.2636   -0.3312 C   0  0
   -3.1577    0.2383   -0.1895 C   0  0
    1.7776    0.1042   -2.3099 C   0  0
    0.5047   -3.4373    1.9127 C   0  0
    1.6440    0.2501   -0.8049 C   0  0
    0.2096   -1.7348    0.0503 C   0  0
    0.5913   -1.9722    1.5093 C   0  0
   -0.7987    0.4315   -0.2289 N   0  0
   -3.2016    1.3050   -1.0462 N   0  0
   -1.9157   -0.1871    0.2121 N   0  0
   -4.5523   -0.5137    0.3431 S   0  0
    1.0044    0.6706   -2.8382 H   0  0
    2.7544    0.4688   -2.6422 H   0  0
    1.6831   -0.9441   -2.6121 H   0  0
   -0.5080   -3.8294    1.7790 H   0  0
    1.1935   -4.0497    1.3224 H   0  0
    0.7696   -3.5522    2.9687 H   0  0
    2.4344   -0.3304   -0.3166 H   0  0
    1.7891    1.2889   -0.4945 H   0  0
   -0.8034   -2.1046   -0.1466 H   0  0
    0.8898   -2.2931   -0.6028 H   0  0
    1.6216   -1.6300    1.6618 H   0  0
   -0.0454   -1.3799    2.1761 H   0  0
   -2.3540    1.7596   -1.3688 H   0  0
   -4.0831    1.6750   -1.3857 H   0  0
   -1.8263   -0.9632    0.8559 H   0  0
  1  5  1  0
  1  6  1  0
  1  8  2  0
  2  9  1  0
  2 10  1  0
  2 11  2  0
  3  5  1  0
  4  7  1  0
  6  7  1  0
  8 10  1  0
  3 12  1  0
  3 13  1  0
  3 14  1  0
  4 15  1  0
  4 16  1  0
  4 17  1  0
  5 18  1  0
  5 19  1  0
  6 20  1  0
  6 21  1  0
  7 22  1  0
  7 23  1  0
  9 24  1  0
  9 25  1  0
 10 26  1  0
M  END
> <Name>
BR020030

$$$$
BR020031
  SciTegic05062102053D

 17 16  0  0  0  0            999 V2000
   -1.0166    0.2413   -0.1847 C   0  0
    1.8977    2.0135    0.5156 C   0  0
   -1.6341   -1.0106   -0.7595 C   0  0
   -1.9210    1.4383   -0.0248 C   0  0
    0.2229    0.3709    0.1797 N   0  0
    2.7575    1.1930   -0.1637 N   0  0
    0.6089    1.5685    0.6764 N   0  0
    2.3938    3.4904    1.1214 S   0  0
   -1.5381   -1.0036   -1.8485 H   0  0
   -2.6967   -1.0606   -0.5059 H   0  0
   -1.1377   -1.8926   -0.3461 H   0  0
   -2.3855    1.4104    0.9646 H   0  0
   -2.7045    1.4381   -0.7876 H   0  0
   -1.3298    2.3531   -0.1200 H   0  0
    2.4542    0.2975   -0.5315 H   0  0
    3.7247    1.4548   -0.3220 H   0  0
   -0.0709    2.1355    1.1693 H   0  0
  1  3  1  0
  1  4  1  0
  1  5  2  0
  2  6  1  0
  2  7  1  0
  2  8  2  0
  5  7  1  0
  3  9  1  0
  3 10  1  0
  3 11  1  0
  4 12  1  0
  4 13  1  0
  4 14  1  0
  6 15  1  0
  6 16  1  0
  7 17  1  0
M  END
> <Name>
BR020031

$$$$
BR020032
  SciTegic05062102053D

 47 50  0  0  0  0            999 V2000
    0.7693    2.7918   -1.2138 C   0  0
    1.3831    2.3386   -0.0462 C   0  0
   -0.2139    2.0179   -1.8304 C   0  0
   -6.2108   -4.1301    5.5798 C   0  0
   -4.7261   -2.2465    5.2882 C   0  0
    1.0139    1.1115    0.5048 C   0  0
   -0.5832    0.7909   -1.2795 C   0  0
   -7.0960   -3.3219    6.2931 C   0  0
   -5.6114   -1.4383    6.0014 C   0  0
   -3.9911   -5.7765    4.5803 C   0  0
   -5.0257   -3.5924    5.0774 C   0  0
    0.0307    0.3376   -0.1118 C   0  0
   -6.7964   -1.9760    6.5038 C   0  0
   -4.1153   -4.4235    4.3436 C   0  0
   -2.5824   -4.8813    2.8434 C   0  0
    0.2459   -2.0883    0.1751 C   0  0
   -0.2321   -3.3451    0.8232 C   0  0
   -0.3486   -0.9223    0.4533 C   0  0
    1.4244   -2.2527   -0.7354 C   0  0
    0.7772   -4.4743    0.9170 C   0  0
    2.5934   -2.9778   -0.0605 C   0  0
    2.1845   -3.9131    1.0824 C   0  0
   -3.3081   -3.9083    3.3483 N   0  0
   -1.4382   -3.5044    1.2629 N   0  0
   -1.6478   -4.7158    1.8092 N   0  0
   -2.8202   -6.4413    3.5180 S   0  0
   -7.8873   -0.9782    7.3847 Cl  0  0
    1.0558    3.7477   -1.6421 H   0  0
    2.1479    2.9415    0.4348 H   0  0
   -0.6928    2.3712   -2.7389 H   0  0
   -6.4597   -5.1774    5.4243 H   0  0
   -3.8063   -1.8127    4.9029 H   0  0
    1.5016    0.7715    1.4154 H   0  0
   -1.3512    0.1991   -1.7718 H   0  0
   -8.0157   -3.7542    6.6787 H   0  0
   -5.3640   -0.3917    6.1590 H   0  0
   -4.5127   -6.3953    5.2977 H   0  0
   -1.1585   -0.9339    1.1801 H   0  0
    1.1444   -2.8012   -1.6469 H   0  0
    1.7573   -1.2561   -1.0629 H   0  0
    0.5392   -5.1192    1.7631 H   0  0
    0.7031   -5.0664    0.0031 H   0  0
    3.1592   -3.5575   -0.8206 H   0  0
    3.3125   -2.2261    0.3248 H   0  0
    2.2521   -3.3640    2.0371 H   0  0
    2.9056   -4.7434    1.1514 H   0  0
   -1.1372   -5.5314    1.4894 H   0  0
  1  2  2  0
  1  3  1  0
  2  6  1  0
  3  7  2  0
  4  8  2  0
  4 11  1  0
  5  9  1  0
  5 11  2  0
  6 12  2  0
  7 12  1  0
  8 13  1  0
  9 13  2  0
 10 14  2  0
 10 26  1  0
 11 14  1  0
 12 18  1  0
 13 27  1  0
 14 23  1  0
 15 23  2  0
 15 25  1  0
 15 26  1  0
 16 17  1  0
 16 18  2  0
 16 19  1  0
 17 20  1  0
 17 24  2  0
 19 21  1  0
 20 22  1  0
 21 22  1  0
 24 25  1  0
  1 28  1  0
  2 29  1  0
  3 30  1  0
  4 31  1  0
  5 32  1  0
  6 33  1  0
  7 34  1  0
  8 35  1  0
  9 36  1  0
 10 37  1  0
 18 38  1  0
 19 39  1  0
 19 40  1  0
 20 41  1  0
 20 42  1  0
 21 43  1  0
 21 44  1  0
 22 45  1  0
 22 46  1  0
 25 47  1  0
M  END
> <Name>
BR020032

$$$$
BR020033
  SciTegic05062102053D

 49 52  0  0  1  0            999 V2000
    6.3264   -7.0961   -3.2544 C   0  0
    6.5233   -6.1857   -4.2927 C   0  0
    5.4335   -6.7976   -2.2250 C   0  0
    5.8275   -4.9768   -4.3016 C   0  0
    4.7378   -5.5887   -2.2340 C   0  0
   -3.8272   -2.1568    2.1876 C   0  0
   -3.5401   -4.1174    0.8244 C   0  0
   -4.7697   -2.8662    2.9145 C   0  0
   -4.4953   -4.7390    1.6124 C   0  0
    4.7337   -2.2871   -3.8466 C   0  0
    4.9348   -4.6783   -3.2722 C   0  0
   -3.2053   -2.8015    1.1242 C   0  0
    4.2192   -3.4349   -3.2811 C   0  0
    2.5410   -2.0840   -2.8703 C   0  0
    0.1597   -2.0395   -0.5799 C   0  0
    0.7758   -0.7722   -0.0383 C   0  0
    1.3491   -1.0255    1.3490 C   0  0
    0.3148   -1.6525    2.2824 C   0  0
   -0.2368   -2.9560    1.7020 C   0  0
   -0.8251   -2.7938    0.2955 C   0  0  1  0  0  0
   -2.1718   -2.0761    0.2985 C   0  0  1  0  0  0
   -5.1211   -4.1452    2.6533 N   0  0
    2.9621   -3.3203   -2.7203 N   0  0
    0.4447   -2.4316   -1.7788 N   0  0
    1.2995   -1.6113   -2.4169 N   0  0
   -2.6447   -1.9886   -1.0429 O   0  0
    3.6056   -1.0065   -3.6770 S   0  0
    6.8672   -8.0379   -3.2478 H   0  0
    7.2174   -6.4185   -5.0948 H   0  0
    5.2794   -7.5071   -1.4174 H   0  0
    5.9920   -4.2775   -5.1180 H   0  0
    4.0453   -5.3709   -1.4241 H   0  0
   -3.5890   -1.1307    2.4466 H   0  0
   -3.0723   -4.6470    0.0016 H   0  0
   -5.2844   -2.4081    3.7528 H   0  0
   -4.7915   -5.7649    1.4198 H   0  0
    5.6839   -2.1354   -4.3402 H   0  0
    1.5630   -0.4219   -0.7143 H   0  0
    0.0000    0.0000    0.0001 H   0  0
    2.2150   -1.6948    1.2707 H   0  0
    1.7091   -0.0832    1.7769 H   0  0
    0.7785   -1.8557    3.2546 H   0  0
   -0.5016   -0.9438    2.4632 H   0  0
    0.5819   -3.6865    1.6580 H   0  0
   -0.9899   -3.3718    2.3816 H   0  0
   -0.9783   -3.7948   -0.1264 H   0  0
   -2.0224   -1.0531    0.6601 H   0  0
    1.0676   -0.6380   -2.5821 H   0  0
   -3.4795   -1.4962   -1.0101 H   0  0
  1  2  2  0
  1  3  1  0
  2  4  1  0
  3  5  2  0
  4 11  2  0
  5 11  1  0
  6  8  1  0
  6 12  2  0
  7  9  2  0
  7 12  1  0
  8 22  2  0
  9 22  1  0
 10 13  2  0
 10 27  1  0
 11 13  1  0
 12 21  1  0
 13 23  1  0
 14 23  2  0
 14 25  1  0
 14 27  1  0
 15 16  1  0
 15 20  1  0
 15 24  2  0
 16 17  1  0
 17 18  1  0
 18 19  1  0
 19 20  1  0
 20 21  1  0
 21 26  1  0
 24 25  1  0
  1 28  1  0
  2 29  1  0
  3 30  1  0
  4 31  1  0
  5 32  1  0
  6 33  1  0
  7 34  1  0
  8 35  1  0
  9 36  1  0
 10 37  1  0
 16 38  1  0
 16 39  1  0
 17 40  1  0
 17 41  1  0
 18 42  1  0
 18 43  1  0
 19 44  1  0
 19 45  1  0
 20 46  1  0
 21 47  1  0
 25 48  1  0
 26 49  1  0
M  END
> <Name>
BR020033

$$$$
BR020034
  SciTegic05062102053D

 49 52  0  0  1  0            999 V2000
   -0.4101    1.8824    8.4982 C   0  0
   -0.4046    2.8591    7.5024 C   0  0
    0.3165    0.7046    8.3239 C   0  0
    0.3276    2.6579    6.3323 C   0  0
    1.0486    0.5034    7.1538 C   0  0
   -2.0429   -0.3446    2.8251 C   0  0
   -1.4076   -2.5020    3.6775 C   0  0
   -2.0722    0.1046    4.1355 C   0  0
   -1.4651   -1.9562    4.9497 C   0  0
    2.8256    2.1160    4.5625 C   0  0
    1.0542    1.4801    6.1580 C   0  0
   -1.7034   -1.6741    2.6003 C   0  0
    1.8071    1.2728    4.9545 C   0  0
    2.3829    0.2540    3.0997 C   0  0
    0.7762   -1.7157    0.9885 C   0  0
    0.8774   -0.6507   -0.0786 C   0  0
    0.9392   -1.3024   -1.4536 C   0  0
   -0.2123   -2.2833   -1.6690 C   0  0
   -0.2338   -3.3604   -0.5828 C   0  0
   -0.2870   -2.7868    0.8375 C   0  0  2  0  0  0
   -1.6568   -2.2164    1.1932 C   0  0  1  0  0  0
   -1.7910   -0.6697    5.2075 N   0  0
    1.5515    0.2048    4.1168 N   0  0
    1.5406   -1.7097    2.0315 N   0  0
    2.4050   -0.6786    2.0508 N   0  0
   -2.6270   -3.2536    1.0759 O   0  0
    3.4991    1.5575    3.0874 S   0  0
   -0.9793    2.0394    9.4098 H   0  0
   -0.9692    3.7768    7.6384 H   0  0
    0.3130   -0.0552    9.1000 H   0  0
    0.3218    3.4288    5.5652 H   0  0
    1.6099   -0.4203    7.0332 H   0  0
   -2.2799    0.3266    2.0066 H   0  0
   -1.1392   -3.5430    3.5343 H   0  0
   -2.3323    1.1329    4.3644 H   0  0
   -1.2432   -2.5602    5.8233 H   0  0
    3.2033    3.0040    5.0505 H   0  0
    0.0018    0.0023    0.0001 H   0  0
    1.7689   -0.0374    0.0895 H   0  0
    0.9150   -0.5290   -2.2295 H   0  0
    1.8912   -1.8372   -1.5623 H   0  0
   -1.1648   -1.7412   -1.6828 H   0  0
   -0.1051   -2.7597   -2.6503 H   0  0
   -1.0814   -4.0352   -0.7505 H   0  0
    0.6752   -3.9684   -0.6827 H   0  0
   -0.0698   -3.6012    1.5403 H   0  0
   -1.9146   -1.4431    0.4616 H   0  0
    3.0869   -0.5520    1.3109 H   0  0
   -3.4873   -2.8506    1.2706 H   0  0
  1  2  2  0
  1  3  1  0
  2  4  1  0
  3  5  2  0
  4 11  2  0
  5 11  1  0
  6  8  1  0
  6 12  2  0
  7  9  2  0
  7 12  1  0
  8 22  2  0
  9 22  1  0
 10 13  2  0
 10 27  1  0
 11 13  1  0
 12 21  1  0
 13 23  1  0
 14 23  2  0
 14 25  1  0
 14 27  1  0
 15 16  1  0
 15 20  1  0
 15 24  2  0
 16 17  1  0
 17 18  1  0
 18 19  1  0
 19 20  1  0
 20 21  1  0
 21 26  1  0
 24 25  1  0
  1 28  1  0
  2 29  1  0
  3 30  1  0
  4 31  1  0
  5 32  1  0
  6 33  1  0
  7 34  1  0
  8 35  1  0
  9 36  1  0
 10 37  1  0
 16 38  1  0
 16 39  1  0
 17 40  1  0
 17 41  1  0
 18 42  1  0
 18 43  1  0
 19 44  1  0
 19 45  1  0
 20 46  1  0
 21 47  1  0
 25 48  1  0
 26 49  1  0
M  END
> <Name>
BR020034

$$$$
BR020035
  SciTegic05062102053D

 49 52  0  0  1  0            999 V2000
   -3.6736   -0.2471   -7.8449 C   0  0
   -3.1953    0.9254   -7.2601 C   0  0
   -3.0273   -1.4599   -7.6056 C   0  0
   -2.0706    0.8852   -6.4360 C   0  0
   -1.9026   -1.5001   -6.7815 C   0  0
   -3.0460   -0.6811   -1.6002 C   0  0
   -2.9871   -3.0713   -1.8602 C   0  0
   -3.5742   -0.6090   -2.8791 C   0  0
   -3.5182   -2.8923   -3.1274 C   0  0
    0.8818    0.3407   -5.6279 C   0  0
   -1.4242   -0.3276   -6.1967 C   0  0
   -2.7496   -1.9394   -1.0884 C   0  0
   -0.2673   -0.3692   -5.3494 C   0  0
    0.9269   -0.9812   -3.6147 C   0  0
    0.1597   -2.0395   -0.5799 C   0  0
    0.7758   -0.7722   -0.0383 C   0  0
    1.3491   -1.0255    1.3490 C   0  0
    0.3148   -1.6525    2.2824 C   0  0
   -0.2368   -2.9560    1.7020 C   0  0
   -0.8251   -2.7938    0.2955 C   0  0  1  0  0  0
   -2.1718   -2.0761    0.2985 C   0  0  2  0  0  0
   -3.8188   -1.6861   -3.6587 N   0  0
   -0.2432   -1.1281   -4.1956 N   0  0
    0.4447   -2.4316   -1.7788 N   0  0
    1.2995   -1.6113   -2.4169 N   0  0
   -3.0865   -2.8212    1.0980 O   0  0
    2.0458    0.0554   -4.4010 S   0  0
   -4.5500   -0.2162   -8.4857 H   0  0
   -3.6990    1.8695   -7.4453 H   0  0
   -3.4008   -2.3728   -8.0600 H   0  0
   -1.7098    1.8079   -5.9875 H   0  0
   -1.4101   -2.4535   -6.6049 H   0  0
   -2.8716    0.2213   -1.0239 H   0  0
   -2.7666   -4.0662   -1.4888 H   0  0
   -3.8215    0.3490   -3.3246 H   0  0
   -3.7219   -3.7432   -3.7690 H   0  0
    1.0946    0.9966   -6.4609 H   0  0
    1.5630   -0.4219   -0.7143 H   0  0
    0.0000    0.0000    0.0001 H   0  0
    2.2150   -1.6948    1.2707 H   0  0
    1.7091   -0.0832    1.7769 H   0  0
    0.7785   -1.8557    3.2546 H   0  0
   -0.5016   -0.9438    2.4632 H   0  0
    0.5819   -3.6865    1.6580 H   0  0
   -0.9899   -3.3718    2.3816 H   0  0
   -0.9783   -3.7948   -0.1264 H   0  0
   -2.0447   -1.0973    0.7733 H   0  0
    2.2276   -1.4323   -2.0496 H   0  0
   -2.6888   -2.8919    1.9797 H   0  0
  1  2  2  0
  1  3  1  0
  2  4  1  0
  3  5  2  0
  4 11  2  0
  5 11  1  0
  6  8  1  0
  6 12  2  0
  7  9  2  0
  7 12  1  0
  8 22  2  0
  9 22  1  0
 10 13  2  0
 10 27  1  0
 11 13  1  0
 12 21  1  0
 13 23  1  0
 14 23  2  0
 14 25  1  0
 14 27  1  0
 15 16  1  0
 15 20  1  0
 15 24  2  0
 16 17  1  0
 17 18  1  0
 18 19  1  0
 19 20  1  0
 20 21  1  0
 21 26  1  0
 24 25  1  0
  1 28  1  0
  2 29  1  0
  3 30  1  0
  4 31  1  0
  5 32  1  0
  6 33  1  0
  7 34  1  0
  8 35  1  0
  9 36  1  0
 10 37  1  0
 16 38  1  0
 16 39  1  0
 17 40  1  0
 17 41  1  0
 18 42  1  0
 18 43  1  0
 19 44  1  0
 19 45  1  0
 20 46  1  0
 21 47  1  0
 25 48  1  0
 26 49  1  0
M  END
> <Name>
BR020035

$$$$
BR020036
  SciTegic05062102053D

 49 52  0  0  1  0            999 V2000
    8.3002   -5.2910    2.1230 C   0  0
    8.6916   -4.1043    2.7429 C   0  0
    7.0562   -5.3738    1.4974 C   0  0
    7.8389   -3.0004    2.7372 C   0  0
    6.2036   -4.2699    1.4918 C   0  0
   -3.8332   -3.0458    0.2494 C   0  0
   -2.6771   -4.4163    1.8524 C   0  0
   -4.8100   -4.0270    0.1956 C   0  0
   -3.7058   -5.3361    1.7269 C   0  0
    6.1841   -0.6502    2.1240 C   0  0
    6.5949   -3.0832    2.1117 C   0  0
   -2.7497   -3.2518    1.0961 C   0  0
    5.7177   -1.9480    2.1059 C   0  0
    3.7891   -0.9041    2.0758 C   0  0
    0.7762   -1.7157    0.9885 C   0  0
    0.8774   -0.6507   -0.0786 C   0  0
    0.9392   -1.3024   -1.4536 C   0  0
   -0.2123   -2.2833   -1.6690 C   0  0
   -0.2338   -3.3604   -0.5828 C   0  0
   -0.2870   -2.7868    0.8375 C   0  0  2  0  0  0
   -1.6568   -2.2164    1.1932 C   0  0  2  0  0  0
   -4.7741   -5.1709    0.9151 N   0  0
    4.3446   -2.0956    2.0787 N   0  0
    1.5406   -1.7097    2.0315 N   0  0
    2.4040   -0.6778    2.0515 N   0  0
   -1.6160   -1.7261    2.5307 O   0  0
    4.8585    0.4378    2.1044 S   0  0
    8.9644   -6.1503    2.1263 H   0  0
    9.6606   -4.0393    3.2289 H   0  0
    6.7523   -6.2974    1.0137 H   0  0
    8.1584   -2.0823    3.2249 H   0  0
    5.2370   -4.3505    0.9997 H   0  0
   -3.9189   -2.1486   -0.3543 H   0  0
   -1.8450   -4.6055    2.5217 H   0  0
   -5.6749   -3.9148   -0.4501 H   0  0
   -3.6961   -6.2603    2.2952 H   0  0
    7.2039   -0.2910    2.1436 H   0  0
    0.0018    0.0023    0.0001 H   0  0
    1.7689   -0.0374    0.0895 H   0  0
    0.9150   -0.5290   -2.2295 H   0  0
    1.8912   -1.8372   -1.5623 H   0  0
   -1.1648   -1.7412   -1.6828 H   0  0
   -0.1051   -2.7597   -2.6503 H   0  0
   -1.0814   -4.0352   -0.7505 H   0  0
    0.6752   -3.9684   -0.6827 H   0  0
   -0.0698   -3.6012    1.5403 H   0  0
   -1.8603   -1.3625    0.5381 H   0  0
    2.0748    0.2814    2.0514 H   0  0
   -2.4867   -1.3383    2.7096 H   0  0
  1  2  2  0
  1  3  1  0
  2  4  1  0
  3  5  2  0
  4 11  2  0
  5 11  1  0
  6  8  1  0
  6 12  2  0
  7  9  2  0
  7 12  1  0
  8 22  2  0
  9 22  1  0
 10 13  2  0
 10 27  1  0
 11 13  1  0
 12 21  1  0
 13 23  1  0
 14 23  2  0
 14 25  1  0
 14 27  1  0
 15 16  1  0
 15 20  1  0
 15 24  2  0
 16 17  1  0
 17 18  1  0
 18 19  1  0
 19 20  1  0
 20 21  1  0
 21 26  1  0
 24 25  1  0
  1 28  1  0
  2 29  1  0
  3 30  1  0
  4 31  1  0
  5 32  1  0
  6 33  1  0
  7 34  1  0
  8 35  1  0
  9 36  1  0
 10 37  1  0
 16 38  1  0
 16 39  1  0
 17 40  1  0
 17 41  1  0
 18 42  1  0
 18 43  1  0
 19 44  1  0
 19 45  1  0
 20 46  1  0
 21 47  1  0
 25 48  1  0
 26 49  1  0
M  END
> <Name>
BR020036

$$$$
BR020037
  SciTegic05062102053D

 49 52  0  0  1  0            999 V2000
    5.8275   -4.9766   -4.3017 C   0  0
    4.7375   -5.5890   -2.2343 C   0  0
    6.5230   -6.1856   -4.2932 C   0  0
    5.4330   -6.7981   -2.2258 C   0  0
   -3.8272   -2.1568    2.1876 C   0  0
   -3.5401   -4.1174    0.8244 C   0  0
   -4.7697   -2.8662    2.9145 C   0  0
   -4.4953   -4.7390    1.6124 C   0  0
    4.7337   -2.2871   -3.8466 C   0  0
    4.9348   -4.6783   -3.2722 C   0  0
   -3.2053   -2.8015    1.1242 C   0  0
    6.3258   -7.0964   -3.2553 C   0  0
    4.2192   -3.4349   -3.2811 C   0  0
    2.5410   -2.0840   -2.8703 C   0  0
    0.1597   -2.0395   -0.5799 C   0  0
    0.7758   -0.7722   -0.0383 C   0  0
    1.3491   -1.0255    1.3490 C   0  0
    0.3148   -1.6525    2.2824 C   0  0
   -0.2368   -2.9560    1.7020 C   0  0
   -0.8251   -2.7938    0.2955 C   0  0  1  0  0  0
   -2.1718   -2.0761    0.2985 C   0  0  1  0  0  0
   -5.1211   -4.1452    2.6533 N   0  0
    2.9621   -3.3203   -2.7203 N   0  0
    0.4447   -2.4316   -1.7788 N   0  0
    1.2995   -1.6113   -2.4169 N   0  0
   -2.6447   -1.9886   -1.0429 O   0  0
    3.6056   -1.0065   -3.6770 S   0  0
    7.1843   -8.5879   -3.2432 Cl  0  0
    5.9929   -4.2777   -5.1185 H   0  0
    4.0451   -5.3709   -1.4246 H   0  0
    7.2155   -6.4049   -5.1019 H   0  0
    5.2702   -7.4975   -1.4100 H   0  0
   -3.5890   -1.1307    2.4466 H   0  0
   -3.0723   -4.6470    0.0016 H   0  0
   -5.2844   -2.4081    3.7528 H   0  0
   -4.7915   -5.7649    1.4198 H   0  0
    5.6839   -2.1354   -4.3402 H   0  0
    1.5630   -0.4219   -0.7143 H   0  0
    0.0000    0.0000    0.0001 H   0  0
    2.2150   -1.6948    1.2707 H   0  0
    1.7091   -0.0832    1.7769 H   0  0
    0.7785   -1.8557    3.2546 H   0  0
   -0.5016   -0.9438    2.4632 H   0  0
    0.5819   -3.6865    1.6580 H   0  0
   -0.9899   -3.3718    2.3816 H   0  0
   -0.9783   -3.7948   -0.1264 H   0  0
   -2.0224   -1.0531    0.6601 H   0  0
    1.0676   -0.6380   -2.5821 H   0  0
   -3.4795   -1.4962   -1.0101 H   0  0
  1  3  2  0
  1 10  1  0
  2  4  1  0
  2 10  2  0
  3 12  1  0
  4 12  2  0
  5  7  1  0
  5 11  2  0
  6  8  2  0
  6 11  1  0
  7 22  2  0
  8 22  1  0
  9 13  2  0
  9 27  1  0
 10 13  1  0
 11 21  1  0
 12 28  1  0
 13 23  1  0
 14 23  2  0
 14 25  1  0
 14 27  1  0
 15 16  1  0
 15 20  1  0
 15 24  2  0
 16 17  1  0
 17 18  1  0
 18 19  1  0
 19 20  1  0
 20 21  1  0
 21 26  1  0
 24 25  1  0
  1 29  1  0
  2 30  1  0
  3 31  1  0
  4 32  1  0
  5 33  1  0
  6 34  1  0
  7 35  1  0
  8 36  1  0
  9 37  1  0
 16 38  1  0
 16 39  1  0
 17 40  1  0
 17 41  1  0
 18 42  1  0
 18 43  1  0
 19 44  1  0
 19 45  1  0
 20 46  1  0
 21 47  1  0
 25 48  1  0
 26 49  1  0
M  END
> <Name>
BR020037

$$$$
BR020038
  SciTegic05062102053D

 49 52  0  0  1  0            999 V2000
    0.3276    2.6580    6.3321 C   0  0
    1.0489    0.5038    7.1542 C   0  0
   -0.4042    2.8596    7.5023 C   0  0
    0.3172    0.7053    8.3244 C   0  0
   -2.0429   -0.3446    2.8251 C   0  0
   -1.4076   -2.5020    3.6775 C   0  0
   -2.0722    0.1046    4.1355 C   0  0
   -1.4651   -1.9562    4.9497 C   0  0
    2.8256    2.1160    4.5625 C   0  0
    1.0542    1.4801    6.1580 C   0  0
   -1.7034   -1.6741    2.6003 C   0  0
   -0.4094    1.8833    8.4985 C   0  0
    1.8071    1.2728    4.9545 C   0  0
    2.3829    0.2540    3.0997 C   0  0
    0.7762   -1.7157    0.9885 C   0  0
    0.8774   -0.6507   -0.0786 C   0  0
    0.9392   -1.3024   -1.4536 C   0  0
   -0.2123   -2.2833   -1.6690 C   0  0
   -0.2338   -3.3604   -0.5828 C   0  0
   -0.2870   -2.7868    0.8375 C   0  0  2  0  0  0
   -1.6568   -2.2164    1.1932 C   0  0  1  0  0  0
   -1.7910   -0.6697    5.2075 N   0  0
    1.5515    0.2048    4.1168 N   0  0
    1.5406   -1.7097    2.0315 N   0  0
    2.4050   -0.6786    2.0508 N   0  0
   -2.6270   -3.2536    1.0759 O   0  0
    3.4991    1.5575    3.0874 S   0  0
   -1.3130    2.1305    9.9421 Cl  0  0
    0.3211    3.4295    5.5653 H   0  0
    1.6102   -0.4199    7.0332 H   0  0
   -0.9656    3.7823    7.6244 H   0  0
    0.3213   -0.0648    9.0915 H   0  0
   -2.2799    0.3266    2.0066 H   0  0
   -1.1392   -3.5430    3.5343 H   0  0
   -2.3323    1.1329    4.3644 H   0  0
   -1.2432   -2.5602    5.8233 H   0  0
    3.2033    3.0040    5.0505 H   0  0
    0.0018    0.0023    0.0001 H   0  0
    1.7689   -0.0374    0.0895 H   0  0
    0.9150   -0.5290   -2.2295 H   0  0
    1.8912   -1.8372   -1.5623 H   0  0
   -1.1648   -1.7412   -1.6828 H   0  0
   -0.1051   -2.7597   -2.6503 H   0  0
   -1.0814   -4.0352   -0.7505 H   0  0
    0.6752   -3.9684   -0.6827 H   0  0
   -0.0698   -3.6012    1.5403 H   0  0
   -1.9146   -1.4431    0.4616 H   0  0
    3.0869   -0.5520    1.3109 H   0  0
   -3.4873   -2.8506    1.2706 H   0  0
  1  3  2  0
  1 10  1  0
  2  4  1  0
  2 10  2  0
  3 12  1  0
  4 12  2  0
  5  7  1  0
  5 11  2  0
  6  8  2  0
  6 11  1  0
  7 22  2  0
  8 22  1  0
  9 13  2  0
  9 27  1  0
 10 13  1  0
 11 21  1  0
 12 28  1  0
 13 23  1  0
 14 23  2  0
 14 25  1  0
 14 27  1  0
 15 16  1  0
 15 20  1  0
 15 24  2  0
 16 17  1  0
 17 18  1  0
 18 19  1  0
 19 20  1  0
 20 21  1  0
 21 26  1  0
 24 25  1  0
  1 29  1  0
  2 30  1  0
  3 31  1  0
  4 32  1  0
  5 33  1  0
  6 34  1  0
  7 35  1  0
  8 36  1  0
  9 37  1  0
 16 38  1  0
 16 39  1  0
 17 40  1  0
 17 41  1  0
 18 42  1  0
 18 43  1  0
 19 44  1  0
 19 45  1  0
 20 46  1  0
 21 47  1  0
 25 48  1  0
 26 49  1  0
M  END
> <Name>
BR020038

$$$$
BR020039
  SciTegic05062102053D

 49 52  0  0  1  0            999 V2000
   -2.0704    0.8853   -6.4359 C   0  0
   -1.9031   -1.5001   -6.7812 C   0  0
   -3.1953    0.9256   -7.2595 C   0  0
   -3.0281   -1.4597   -7.6048 C   0  0
   -3.0460   -0.6811   -1.6002 C   0  0
   -2.9871   -3.0713   -1.8602 C   0  0
   -3.5742   -0.6090   -2.8791 C   0  0
   -3.5182   -2.8923   -3.1274 C   0  0
    0.8818    0.3407   -5.6279 C   0  0
   -1.4242   -0.3276   -6.1967 C   0  0
   -2.7496   -1.9394   -1.0884 C   0  0
   -3.6742   -0.2469   -7.8440 C   0  0
   -0.2673   -0.3692   -5.3494 C   0  0
    0.9269   -0.9812   -3.6147 C   0  0
    0.1597   -2.0395   -0.5799 C   0  0
    0.7758   -0.7722   -0.0383 C   0  0
    1.3491   -1.0255    1.3490 C   0  0
    0.3148   -1.6525    2.2824 C   0  0
   -0.2368   -2.9560    1.7020 C   0  0
   -0.8251   -2.7938    0.2955 C   0  0  1  0  0  0
   -2.1718   -2.0761    0.2985 C   0  0  2  0  0  0
   -3.8188   -1.6861   -3.6587 N   0  0
   -0.2432   -1.1281   -4.1956 N   0  0
    0.4447   -2.4316   -1.7788 N   0  0
    1.2995   -1.6113   -2.4169 N   0  0
   -3.0865   -2.8212    1.0980 O   0  0
    2.0458    0.0554   -4.4010 S   0  0
   -5.0614   -0.1980   -8.8613 Cl  0  0
   -1.7102    1.8086   -5.9879 H   0  0
   -1.4103   -2.4533   -6.6044 H   0  0
   -3.6888    1.8777   -7.4371 H   0  0
   -3.3891   -2.3811   -8.0544 H   0  0
   -2.8716    0.2213   -1.0239 H   0  0
   -2.7666   -4.0662   -1.4888 H   0  0
   -3.8215    0.3490   -3.3246 H   0  0
   -3.7219   -3.7432   -3.7690 H   0  0
    1.0946    0.9966   -6.4609 H   0  0
    1.5630   -0.4219   -0.7143 H   0  0
    0.0000    0.0000    0.0001 H   0  0
    2.2150   -1.6948    1.2707 H   0  0
    1.7091   -0.0832    1.7769 H   0  0
    0.7785   -1.8557    3.2546 H   0  0
   -0.5016   -0.9438    2.4632 H   0  0
    0.5819   -3.6865    1.6580 H   0  0
   -0.9899   -3.3718    2.3816 H   0  0
   -0.9783   -3.7948   -0.1264 H   0  0
   -2.0447   -1.0973    0.7733 H   0  0
    2.2276   -1.4323   -2.0496 H   0  0
   -2.6888   -2.8919    1.9797 H   0  0
  1  3  2  0
  1 10  1  0
  2  4  1  0
  2 10  2  0
  3 12  1  0
  4 12  2  0
  5  7  1  0
  5 11  2  0
  6  8  2  0
  6 11  1  0
  7 22  2  0
  8 22  1  0
  9 13  2  0
  9 27  1  0
 10 13  1  0
 11 21  1  0
 12 28  1  0
 13 23  1  0
 14 23  2  0
 14 25  1  0
 14 27  1  0
 15 16  1  0
 15 20  1  0
 15 24  2  0
 16 17  1  0
 17 18  1  0
 18 19  1  0
 19 20  1  0
 20 21  1  0
 21 26  1  0
 24 25  1  0
  1 29  1  0
  2 30  1  0
  3 31  1  0
  4 32  1  0
  5 33  1  0
  6 34  1  0
  7 35  1  0
  8 36  1  0
  9 37  1  0
 16 38  1  0
 16 39  1  0
 17 40  1  0
 17 41  1  0
 18 42  1  0
 18 43  1  0
 19 44  1  0
 19 45  1  0
 20 46  1  0
 21 47  1  0
 25 48  1  0
 26 49  1  0
M  END
> <Name>
BR020039

$$$$
BR020040
  SciTegic05062102053D

 49 52  0  0  1  0            999 V2000
    7.8389   -3.0002    2.7373 C   0  0
    6.2040   -4.2697    1.4913 C   0  0
    8.6918   -4.1038    2.7427 C   0  0
    7.0570   -5.3734    1.4966 C   0  0
   -3.8332   -3.0458    0.2494 C   0  0
   -2.6771   -4.4163    1.8524 C   0  0
   -4.8100   -4.0270    0.1956 C   0  0
   -3.7058   -5.3361    1.7269 C   0  0
    6.1841   -0.6502    2.1240 C   0  0
    6.5949   -3.0832    2.1117 C   0  0
   -2.7497   -3.2518    1.0961 C   0  0
    8.3009   -5.2904    2.1223 C   0  0
    5.7177   -1.9480    2.1059 C   0  0
    3.7891   -0.9041    2.0758 C   0  0
    0.7762   -1.7157    0.9885 C   0  0
    0.8774   -0.6507   -0.0786 C   0  0
    0.9392   -1.3024   -1.4536 C   0  0
   -0.2123   -2.2833   -1.6690 C   0  0
   -0.2338   -3.3604   -0.5828 C   0  0
   -0.2870   -2.7868    0.8375 C   0  0  2  0  0  0
   -1.6568   -2.2164    1.1932 C   0  0  2  0  0  0
   -4.7741   -5.1709    0.9151 N   0  0
    4.3446   -2.0956    2.0787 N   0  0
    1.5406   -1.7097    2.0315 N   0  0
    2.4040   -0.6778    2.0515 N   0  0
   -1.6160   -1.7261    2.5307 O   0  0
    4.8585    0.4378    2.1044 S   0  0
    9.3520   -6.6531    2.1294 Cl  0  0
    8.1592   -2.0825    3.2255 H   0  0
    5.2374   -4.3501    0.9995 H   0  0
    9.6582   -4.0249    3.2339 H   0  0
    6.7384   -6.2918    1.0104 H   0  0
   -3.9189   -2.1486   -0.3543 H   0  0
   -1.8450   -4.6055    2.5217 H   0  0
   -5.6749   -3.9148   -0.4501 H   0  0
   -3.6961   -6.2603    2.2952 H   0  0
    7.2039   -0.2910    2.1436 H   0  0
    0.0018    0.0023    0.0001 H   0  0
    1.7689   -0.0374    0.0895 H   0  0
    0.9150   -0.5290   -2.2295 H   0  0
    1.8912   -1.8372   -1.5623 H   0  0
   -1.1648   -1.7412   -1.6828 H   0  0
   -0.1051   -2.7597   -2.6503 H   0  0
   -1.0814   -4.0352   -0.7505 H   0  0
    0.6752   -3.9684   -0.6827 H   0  0
   -0.0698   -3.6012    1.5403 H   0  0
   -1.8603   -1.3625    0.5381 H   0  0
    2.0748    0.2814    2.0514 H   0  0
   -2.4867   -1.3383    2.7096 H   0  0
  1  3  2  0
  1 10  1  0
  2  4  1  0
  2 10  2  0
  3 12  1  0
  4 12  2  0
  5  7  1  0
  5 11  2  0
  6  8  2  0
  6 11  1  0
  7 22  2  0
  8 22  1  0
  9 13  2  0
  9 27  1  0
 10 13  1  0
 11 21  1  0
 12 28  1  0
 13 23  1  0
 14 23  2  0
 14 25  1  0
 14 27  1  0
 15 16  1  0
 15 20  1  0
 15 24  2  0
 16 17  1  0
 17 18  1  0
 18 19  1  0
 19 20  1  0
 20 21  1  0
 21 26  1  0
 24 25  1  0
  1 29  1  0
  2 30  1  0
  3 31  1  0
  4 32  1  0
  5 33  1  0
  6 34  1  0
  7 35  1  0
  8 36  1  0
  9 37  1  0
 16 38  1  0
 16 39  1  0
 17 40  1  0
 17 41  1  0
 18 42  1  0
 18 43  1  0
 19 44  1  0
 19 45  1  0
 20 46  1  0
 21 47  1  0
 25 48  1  0
 26 49  1  0
M  END
> <Name>
BR020040

$$$$
BR020041
  SciTegic05062102053D

 53 56  0  0  1  0            999 V2000
    5.8276   -4.9771   -4.3015 C   0  0
    4.7378   -5.5883   -2.2337 C   0  0
    6.5235   -6.1859   -4.2920 C   0  0
    5.4336   -6.7972   -2.2243 C   0  0
   -3.8272   -2.1568    2.1876 C   0  0
   -3.5401   -4.1174    0.8244 C   0  0
   -4.7697   -2.8662    2.9145 C   0  0
   -4.4953   -4.7390    1.6124 C   0  0
    4.7337   -2.2871   -3.8466 C   0  0
    4.9348   -4.6783   -3.2722 C   0  0
   -3.2053   -2.8015    1.1242 C   0  0
    6.3265   -7.0960   -3.2535 C   0  0
    4.2192   -3.4349   -3.2811 C   0  0
    2.5410   -2.0840   -2.8703 C   0  0
    0.1597   -2.0395   -0.5799 C   0  0
    0.7758   -0.7722   -0.0383 C   0  0
    1.3491   -1.0255    1.3490 C   0  0
    0.3148   -1.6525    2.2824 C   0  0
   -0.2368   -2.9560    1.7020 C   0  0
   -0.8251   -2.7938    0.2955 C   0  0  1  0  0  0
    7.9022   -8.5175   -4.3270 C   0  0
   -2.1718   -2.0761    0.2985 C   0  0  1  0  0  0
   -5.1211   -4.1452    2.6533 N   0  0
    2.9621   -3.3203   -2.7203 N   0  0
    0.4447   -2.4316   -1.7788 N   0  0
    1.2995   -1.6113   -2.4169 N   0  0
   -2.6447   -1.9886   -1.0429 O   0  0
    7.0052   -8.2757   -3.2441 O   0  0
    3.6056   -1.0065   -3.6770 S   0  0
    5.9920   -4.2781   -5.1181 H   0  0
    4.0456   -5.3700   -1.4239 H   0  0
    7.2177   -6.4136   -5.0963 H   0  0
    5.2761   -7.5014   -1.4119 H   0  0
   -3.5890   -1.1307    2.4466 H   0  0
   -3.0723   -4.6470    0.0016 H   0  0
   -5.2844   -2.4081    3.7528 H   0  0
   -4.7915   -5.7649    1.4198 H   0  0
    5.6839   -2.1354   -4.3402 H   0  0
    1.5630   -0.4219   -0.7143 H   0  0
    0.0000    0.0000    0.0001 H   0  0
    2.2150   -1.6948    1.2707 H   0  0
    1.7091   -0.0832    1.7769 H   0  0
    0.7785   -1.8557    3.2546 H   0  0
   -0.5016   -0.9438    2.4632 H   0  0
    0.5819   -3.6865    1.6580 H   0  0
   -0.9899   -3.3718    2.3816 H   0  0
   -0.9783   -3.7948   -0.1264 H   0  0
    8.3775   -9.4927   -4.1966 H   0  0
    8.6608   -7.7313   -4.3553 H   0  0
    7.3389   -8.5114   -5.2632 H   0  0
   -2.0224   -1.0531    0.6601 H   0  0
    1.0676   -0.6380   -2.5821 H   0  0
   -3.4795   -1.4962   -1.0101 H   0  0
  1  3  2  0
  1 10  1  0
  2  4  1  0
  2 10  2  0
  3 12  1  0
  4 12  2  0
  5  7  1  0
  5 11  2  0
  6  8  2  0
  6 11  1  0
  7 23  2  0
  8 23  1  0
  9 13  2  0
  9 29  1  0
 10 13  1  0
 11 22  1  0
 12 28  1  0
 13 24  1  0
 14 24  2  0
 14 26  1  0
 14 29  1  0
 15 16  1  0
 15 20  1  0
 15 25  2  0
 16 17  1  0
 17 18  1  0
 18 19  1  0
 19 20  1  0
 20 22  1  0
 21 28  1  0
 22 27  1  0
 25 26  1  0
  1 30  1  0
  2 31  1  0
  3 32  1  0
  4 33  1  0
  5 34  1  0
  6 35  1  0
  7 36  1  0
  8 37  1  0
  9 38  1  0
 16 39  1  0
 16 40  1  0
 17 41  1  0
 17 42  1  0
 18 43  1  0
 18 44  1  0
 19 45  1  0
 19 46  1  0
 20 47  1  0
 21 48  1  0
 21 49  1  0
 21 50  1  0
 22 51  1  0
 26 52  1  0
 27 53  1  0
M  END
> <Name>
BR020041

$$$$
BR020042
  SciTegic05062102053D

 53 56  0  0  1  0            999 V2000
    0.3275    2.6579    6.3326 C   0  0
    1.0486    0.5031    7.1535 C   0  0
   -0.4049    2.8586    7.5026 C   0  0
    0.3163    0.7038    8.3236 C   0  0
   -2.0429   -0.3446    2.8251 C   0  0
   -1.4076   -2.5020    3.6775 C   0  0
   -2.0722    0.1046    4.1355 C   0  0
   -1.4651   -1.9562    4.9497 C   0  0
    2.8256    2.1160    4.5625 C   0  0
    1.0542    1.4801    6.1580 C   0  0
   -1.7034   -1.6741    2.6003 C   0  0
   -0.4104    1.8816    8.4981 C   0  0
    1.8071    1.2728    4.9545 C   0  0
    2.3829    0.2540    3.0997 C   0  0
    0.7762   -1.7157    0.9885 C   0  0
    0.8774   -0.6507   -0.0786 C   0  0
    0.9392   -1.3024   -1.4536 C   0  0
   -0.2123   -2.2833   -1.6690 C   0  0
   -0.2338   -3.3604   -0.5828 C   0  0
   -0.2870   -2.7868    0.8375 C   0  0  2  0  0  0
   -1.8448    3.3037    9.7535 C   0  0
   -1.6568   -2.2164    1.1932 C   0  0  1  0  0  0
   -1.7910   -0.6697    5.2075 N   0  0
    1.5515    0.2048    4.1168 N   0  0
    1.5406   -1.7097    2.0315 N   0  0
    2.4050   -0.6786    2.0508 N   0  0
   -2.6270   -3.2536    1.0759 O   0  0
   -1.1247    2.0772    9.6401 O   0  0
    3.4991    1.5575    3.0874 S   0  0
    0.3219    3.4290    5.5658 H   0  0
    1.6095   -0.4206    7.0323 H   0  0
   -0.9691    3.7779    7.6334 H   0  0
    0.3156   -0.0616    9.0949 H   0  0
   -2.2799    0.3266    2.0066 H   0  0
   -1.1392   -3.5430    3.5343 H   0  0
   -2.3323    1.1329    4.3644 H   0  0
   -1.2432   -2.5602    5.8233 H   0  0
    3.2033    3.0040    5.0505 H   0  0
    0.0018    0.0023    0.0001 H   0  0
    1.7689   -0.0374    0.0895 H   0  0
    0.9150   -0.5290   -2.2295 H   0  0
    1.8912   -1.8372   -1.5623 H   0  0
   -1.1648   -1.7412   -1.6828 H   0  0
   -0.1051   -2.7597   -2.6503 H   0  0
   -1.0814   -4.0352   -0.7505 H   0  0
    0.6752   -3.9684   -0.6827 H   0  0
   -0.0698   -3.6012    1.5403 H   0  0
   -2.3704    3.3314   10.7111 H   0  0
   -2.5597    3.3849    8.9309 H   0  0
   -1.1389    4.1362    9.7037 H   0  0
   -1.9146   -1.4431    0.4616 H   0  0
    3.0869   -0.5520    1.3109 H   0  0
   -3.4873   -2.8506    1.2706 H   0  0
  1  3  2  0
  1 10  1  0
  2  4  1  0
  2 10  2  0
  3 12  1  0
  4 12  2  0
  5  7  1  0
  5 11  2  0
  6  8  2  0
  6 11  1  0
  7 23  2  0
  8 23  1  0
  9 13  2  0
  9 29  1  0
 10 13  1  0
 11 22  1  0
 12 28  1  0
 13 24  1  0
 14 24  2  0
 14 26  1  0
 14 29  1  0
 15 16  1  0
 15 20  1  0
 15 25  2  0
 16 17  1  0
 17 18  1  0
 18 19  1  0
 19 20  1  0
 20 22  1  0
 21 28  1  0
 22 27  1  0
 25 26  1  0
  1 30  1  0
  2 31  1  0
  3 32  1  0
  4 33  1  0
  5 34  1  0
  6 35  1  0
  7 36  1  0
  8 37  1  0
  9 38  1  0
 16 39  1  0
 16 40  1  0
 17 41  1  0
 17 42  1  0
 18 43  1  0
 18 44  1  0
 19 45  1  0
 19 46  1  0
 20 47  1  0
 21 48  1  0
 21 49  1  0
 21 50  1  0
 22 51  1  0
 26 52  1  0
 27 53  1  0
M  END
> <Name>
BR020042

$$$$
BR020043
  SciTegic05062102053D

 53 56  0  0  1  0            999 V2000
   -2.0708    0.8850   -6.4362 C   0  0
   -1.9022   -1.5002   -6.7816 C   0  0
   -3.1952    0.9250   -7.2606 C   0  0
   -3.0267   -1.4603   -7.6059 C   0  0
   -3.0460   -0.6811   -1.6002 C   0  0
   -2.9871   -3.0713   -1.8602 C   0  0
   -3.5742   -0.6090   -2.8791 C   0  0
   -3.5182   -2.8923   -3.1274 C   0  0
    0.8818    0.3407   -5.6279 C   0  0
   -1.4242   -0.3276   -6.1967 C   0  0
   -2.7496   -1.9394   -1.0884 C   0  0
   -3.6732   -0.2477   -7.8454 C   0  0
   -0.2673   -0.3692   -5.3494 C   0  0
    0.9269   -0.9812   -3.6147 C   0  0
    0.1597   -2.0395   -0.5799 C   0  0
    0.7758   -0.7722   -0.0383 C   0  0
    1.3491   -1.0255    1.3490 C   0  0
    0.3148   -1.6525    2.2824 C   0  0
   -0.2368   -2.9560    1.7020 C   0  0
   -0.8251   -2.7938    0.2955 C   0  0  1  0  0  0
   -5.3830    1.0636   -8.8520 C   0  0
   -2.1718   -2.0761    0.2985 C   0  0  2  0  0  0
   -3.8188   -1.6861   -3.6587 N   0  0
   -0.2432   -1.1281   -4.1956 N   0  0
    0.4447   -2.4316   -1.7788 N   0  0
    1.2995   -1.6113   -2.4169 N   0  0
   -3.0865   -2.8212    1.0980 O   0  0
   -4.7705   -0.2091   -8.6497 O   0  0
    2.0458    0.0554   -4.4010 S   0  0
   -1.7104    1.8077   -5.9875 H   0  0
   -1.4092   -2.4533   -6.6051 H   0  0
   -3.6950    1.8722   -7.4437 H   0  0
   -3.3934   -2.3773   -8.0591 H   0  0
   -2.8716    0.2213   -1.0239 H   0  0
   -2.7666   -4.0662   -1.4888 H   0  0
   -3.8215    0.3490   -3.3246 H   0  0
   -3.7219   -3.7432   -3.7690 H   0  0
    1.0946    0.9966   -6.4609 H   0  0
    1.5630   -0.4219   -0.7143 H   0  0
    0.0000    0.0000    0.0001 H   0  0
    2.2150   -1.6948    1.2707 H   0  0
    1.7091   -0.0832    1.7769 H   0  0
    0.7785   -1.8557    3.2546 H   0  0
   -0.5016   -0.9438    2.4632 H   0  0
    0.5819   -3.6865    1.6580 H   0  0
   -0.9899   -3.3718    2.3816 H   0  0
   -0.9783   -3.7948   -0.1264 H   0  0
   -6.2463    0.9525   -9.5126 H   0  0
   -4.6582    1.7515   -9.2945 H   0  0
   -5.7133    1.4564   -7.8874 H   0  0
   -2.0447   -1.0973    0.7733 H   0  0
    2.2276   -1.4323   -2.0496 H   0  0
   -2.6888   -2.8919    1.9797 H   0  0
  1  3  2  0
  1 10  1  0
  2  4  1  0
  2 10  2  0
  3 12  1  0
  4 12  2  0
  5  7  1  0
  5 11  2  0
  6  8  2  0
  6 11  1  0
  7 23  2  0
  8 23  1  0
  9 13  2  0
  9 29  1  0
 10 13  1  0
 11 22  1  0
 12 28  1  0
 13 24  1  0
 14 24  2  0
 14 26  1  0
 14 29  1  0
 15 16  1  0
 15 20  1  0
 15 25  2  0
 16 17  1  0
 17 18  1  0
 18 19  1  0
 19 20  1  0
 20 22  1  0
 21 28  1  0
 22 27  1  0
 25 26  1  0
  1 30  1  0
  2 31  1  0
  3 32  1  0
  4 33  1  0
  5 34  1  0
  6 35  1  0
  7 36  1  0
  8 37  1  0
  9 38  1  0
 16 39  1  0
 16 40  1  0
 17 41  1  0
 17 42  1  0
 18 43  1  0
 18 44  1  0
 19 45  1  0
 19 46  1  0
 20 47  1  0
 21 48  1  0
 21 49  1  0
 21 50  1  0
 22 51  1  0
 26 52  1  0
 27 53  1  0
M  END
> <Name>
BR020043

$$$$
BR020044
  SciTegic05062102053D

 53 56  0  0  1  0            999 V2000
    7.8390   -3.0007    2.7372 C   0  0
    6.2032   -4.2698    1.4919 C   0  0
    8.6912   -4.1049    2.7430 C   0  0
    7.0554   -5.3740    1.4976 C   0  0
   -3.8332   -3.0458    0.2494 C   0  0
   -2.6771   -4.4163    1.8524 C   0  0
   -4.8100   -4.0270    0.1956 C   0  0
   -3.7058   -5.3361    1.7269 C   0  0
    6.1841   -0.6502    2.1240 C   0  0
    6.5949   -3.0832    2.1117 C   0  0
   -2.7497   -3.2518    1.0961 C   0  0
    8.2995   -5.2915    2.1232 C   0  0
    5.7177   -1.9480    2.1059 C   0  0
    3.7891   -0.9041    2.0758 C   0  0
    0.7762   -1.7157    0.9885 C   0  0
    0.8774   -0.6507   -0.0786 C   0  0
    0.9392   -1.3024   -1.4536 C   0  0
   -0.2123   -2.2833   -1.6690 C   0  0
   -0.2338   -3.3604   -0.5828 C   0  0
   -0.2870   -2.7868    0.8375 C   0  0  2  0  0  0
   10.3881   -6.2161    2.7856 C   0  0
   -1.6568   -2.2164    1.1932 C   0  0  2  0  0  0
   -4.7741   -5.1709    0.9151 N   0  0
    4.3446   -2.0956    2.0787 N   0  0
    1.5406   -1.7097    2.0315 N   0  0
    2.4040   -0.6778    2.0515 N   0  0
   -1.6160   -1.7261    2.5307 O   0  0
    9.1310   -6.3691    2.1284 O   0  0
    4.8585    0.4378    2.1044 S   0  0
    8.1588   -2.0827    3.2245 H   0  0
    5.2364   -4.3502    1.0005 H   0  0
    9.6592   -4.0351    3.2316 H   0  0
    6.7438   -6.2956    1.0137 H   0  0
   -3.9189   -2.1486   -0.3543 H   0  0
   -1.8450   -4.6055    2.5217 H   0  0
   -5.6749   -3.9148   -0.4501 H   0  0
   -3.6961   -6.2603    2.2952 H   0  0
    7.2039   -0.2910    2.1436 H   0  0
    0.0018    0.0023    0.0001 H   0  0
    1.7689   -0.0374    0.0895 H   0  0
    0.9150   -0.5290   -2.2295 H   0  0
    1.8912   -1.8372   -1.5623 H   0  0
   -1.1648   -1.7412   -1.6828 H   0  0
   -0.1051   -2.7597   -2.6503 H   0  0
   -1.0814   -4.0352   -0.7505 H   0  0
    0.6752   -3.9684   -0.6827 H   0  0
   -0.0698   -3.6012    1.5403 H   0  0
   10.9525   -7.1491    2.7158 H   0  0
   10.2227   -5.9554    3.8341 H   0  0
   10.9493   -5.4159    2.2974 H   0  0
   -1.8603   -1.3625    0.5381 H   0  0
    2.0748    0.2814    2.0514 H   0  0
   -2.4867   -1.3383    2.7096 H   0  0
  1  3  2  0
  1 10  1  0
  2  4  1  0
  2 10  2  0
  3 12  1  0
  4 12  2  0
  5  7  1  0
  5 11  2  0
  6  8  2  0
  6 11  1  0
  7 23  2  0
  8 23  1  0
  9 13  2  0
  9 29  1  0
 10 13  1  0
 11 22  1  0
 12 28  1  0
 13 24  1  0
 14 24  2  0
 14 26  1  0
 14 29  1  0
 15 16  1  0
 15 20  1  0
 15 25  2  0
 16 17  1  0
 17 18  1  0
 18 19  1  0
 19 20  1  0
 20 22  1  0
 21 28  1  0
 22 27  1  0
 25 26  1  0
  1 30  1  0
  2 31  1  0
  3 32  1  0
  4 33  1  0
  5 34  1  0
  6 35  1  0
  7 36  1  0
  8 37  1  0
  9 38  1  0
 16 39  1  0
 16 40  1  0
 17 41  1  0
 17 42  1  0
 18 43  1  0
 18 44  1  0
 19 45  1  0
 19 46  1  0
 20 47  1  0
 21 48  1  0
 21 49  1  0
 21 50  1  0
 22 51  1  0
 26 52  1  0
 27 53  1  0
M  END
> <Name>
BR020044

$$$$
BR020045
  SciTegic05062102053D

 52 55  0  0  1  0            999 V2000
    5.3540   -8.2491   -2.2267 C   0  0
    4.8349   -8.7163   -1.0193 C   0  0
    5.0124   -6.9776   -2.6874 C   0  0
   -0.1363   -1.0688   -7.4669 C   0  0
    3.9741   -7.9120   -0.2726 C   0  0
    4.1515   -6.1733   -1.9406 C   0  0
    0.0598   -1.6913   -6.2342 C   0  0
   -1.0410   -0.0130   -7.5790 C   0  0
   -1.5537   -0.2025   -5.2256 C   0  0
    2.6703   -5.8851    1.4097 C   0  0
    3.6323   -6.6405   -0.7332 C   0  0
   -0.6489   -1.2582   -5.1136 C   0  0
   -1.7498    0.4201   -6.4584 C   0  0
    2.7468   -5.8131    0.0345 C   0  0
    1.2222   -4.2707    0.3611 C   0  0
    0.2649   -1.6144   -1.3550 C   0  0
    0.7827   -0.7258   -0.2469 C   0  0
    2.0429   -0.0129   -0.7212 C   0  0
    1.8139    0.7168   -2.0450 C   0  0
    1.3070   -0.2362   -3.1300 C   0  0
    0.0198   -0.9541   -2.7036 C   0  0  1  0  0  0
   -0.4374   -1.9322   -3.7805 C   0  0  1  0  0  0
    1.9169   -4.8882   -0.5685 N   0  0
    0.0221   -2.8687   -1.1557 N   0  0
    0.2767   -3.2654    0.1047 N   0  0
   -2.6698    1.4955   -6.5723 N   0  3
   -2.8304    2.0425   -7.6902 O   0  5
   -3.2974    1.8694   -5.5521 O   0  0
   -1.6694   -2.5191   -3.3698 O   0  0
    1.5170   -4.7520    1.9818 S   0  0
    6.0252   -8.8749   -2.8078 H   0  0
    5.1018   -9.7058   -0.6599 H   0  0
    5.4177   -6.6136   -3.6269 H   0  0
    0.4161   -1.4056   -8.3393 H   0  0
    3.5776   -8.2905    0.6668 H   0  0
    3.8949   -5.1844   -2.3135 H   0  0
    0.7662   -2.5134   -6.1558 H   0  0
   -1.1841    0.4634   -8.5457 H   0  0
   -2.1042    0.1315   -4.3487 H   0  0
    3.2168   -6.5219    2.0919 H   0  0
    0.0193    0.0026    0.0339 H   0  0
    0.9969   -1.3493    0.6237 H   0  0
    2.3611    0.7117    0.0381 H   0  0
    2.8556   -0.7381   -0.8355 H   0  0
    1.0806    1.5189   -1.8953 H   0  0
    2.7445    1.1984   -2.3698 H   0  0
    1.1031    0.3448   -4.0313 H   0  0
    2.0819   -0.9612   -3.3759 H   0  0
   -0.7563   -0.1829   -2.5914 H   0  0
    0.2998   -2.7387   -3.8566 H   0  0
   -0.2075   -2.8502    0.8931 H   0  0
   -1.5018   -2.9427   -2.5137 H   0  0
  1  2  2  0
  1  3  1  0
  2  5  1  0
  3  6  2  0
  4  7  1  0
  4  8  2  0
  5 11  2  0
  6 11  1  0
  7 12  2  0
  8 13  1  0
  9 12  1  0
  9 13  2  0
 10 14  2  0
 10 30  1  0
 11 14  1  0
 12 22  1  0
 13 26  1  0
 14 23  1  0
 15 23  2  0
 15 25  1  0
 15 30  1  0
 16 17  1  0
 16 21  1  0
 16 24  2  0
 17 18  1  0
 18 19  1  0
 19 20  1  0
 20 21  1  0
 21 22  1  0
 22 29  1  0
 24 25  1  0
 26 27  1  0
 26 28  2  0
  1 31  1  0
  2 32  1  0
  3 33  1  0
  4 34  1  0
  5 35  1  0
  6 36  1  0
  7 37  1  0
  8 38  1  0
  9 39  1  0
 10 40  1  0
 17 41  1  0
 17 42  1  0
 18 43  1  0
 18 44  1  0
 19 45  1  0
 19 46  1  0
 20 47  1  0
 20 48  1  0
 21 49  1  0
 22 50  1  0
 25 51  1  0
 29 52  1  0
M  CHG  2  26   1  27  -1
M  END
> <Name>
BR020045

$$$$
BR020046
  SciTegic05062102053D

 52 55  0  0  1  0            999 V2000
    6.3502   -7.0739   -3.2282 C   0  0
    5.4033   -7.6895   -4.0467 C   0  0
    5.9502   -6.1128   -2.2998 C   0  0
   -4.7835   -2.8223    2.9533 C   0  0
    4.0563   -7.3440   -3.9369 C   0  0
    4.6032   -5.7672   -2.1900 C   0  0
   -3.8274   -2.1520    2.1904 C   0  0
   -5.1174   -4.1423    2.6503 C   0  0
   -3.5392   -4.1215    0.8211 C   0  0
    1.2525   -6.9166   -3.1662 C   0  0
    3.6563   -6.3828   -3.0085 C   0  0
   -3.2053   -2.8015    1.1242 C   0  0
   -4.4952   -4.7919    1.5841 C   0  0
    2.2711   -6.0271   -2.8955 C   0  0
    0.5658   -4.7119   -2.4803 C   0  0
    0.1597   -2.0395   -0.5799 C   0  0
    0.7758   -0.7722   -0.0383 C   0  0
    1.3491   -1.0255    1.3490 C   0  0
    0.3148   -1.6525    2.2824 C   0  0
   -0.2368   -2.9560    1.7020 C   0  0
   -0.8251   -2.7938    0.2955 C   0  0  1  0  0  0
   -2.1718   -2.0761    0.2985 C   0  0  1  0  0  0
    1.8793   -4.7623   -2.5024 N   0  0
    0.4447   -2.4316   -1.7788 N   0  0
   -0.1758   -3.5741   -2.1257 N   0  0
   -4.8343   -6.1359    1.2765 N   0  3
   -5.6961   -6.7211    1.9761 O   0  5
   -4.2631   -6.7018    0.3131 O   0  0
   -2.6447   -1.9886   -1.0429 O   0  0
   -0.2616   -6.1496   -2.9202 S   0  0
    7.3988   -7.3436   -3.3128 H   0  0
    5.7143   -8.4388   -4.7687 H   0  0
    6.6874   -5.6345   -1.6617 H   0  0
   -5.2675   -2.3167    3.7839 H   0  0
    3.3301   -7.8329   -4.5822 H   0  0
    4.3076   -5.0160   -1.4612 H   0  0
   -3.5736   -1.1236    2.4330 H   0  0
   -5.8641   -4.6531    3.2532 H   0  0
   -3.0512   -4.6238   -0.0115 H   0  0
    1.3132   -7.9487   -3.4833 H   0  0
    1.5630   -0.4219   -0.7143 H   0  0
    0.0000    0.0000    0.0001 H   0  0
    2.2150   -1.6948    1.2707 H   0  0
    1.7091   -0.0832    1.7769 H   0  0
    0.7785   -1.8557    3.2546 H   0  0
   -0.5016   -0.9438    2.4632 H   0  0
    0.5819   -3.6865    1.6580 H   0  0
   -0.9899   -3.3718    2.3816 H   0  0
   -0.9783   -3.7948   -0.1264 H   0  0
   -2.0224   -1.0531    0.6601 H   0  0
   -1.1878   -3.6377   -2.1402 H   0  0
   -3.4795   -1.4962   -1.0101 H   0  0
  1  2  2  0
  1  3  1  0
  2  5  1  0
  3  6  2  0
  4  7  1  0
  4  8  2  0
  5 11  2  0
  6 11  1  0
  7 12  2  0
  8 13  1  0
  9 12  1  0
  9 13  2  0
 10 14  2  0
 10 30  1  0
 11 14  1  0
 12 22  1  0
 13 26  1  0
 14 23  1  0
 15 23  2  0
 15 25  1  0
 15 30  1  0
 16 17  1  0
 16 21  1  0
 16 24  2  0
 17 18  1  0
 18 19  1  0
 19 20  1  0
 20 21  1  0
 21 22  1  0
 22 29  1  0
 24 25  1  0
 26 27  1  0
 26 28  2  0
  1 31  1  0
  2 32  1  0
  3 33  1  0
  4 34  1  0
  5 35  1  0
  6 36  1  0
  7 37  1  0
  8 38  1  0
  9 39  1  0
 10 40  1  0
 17 41  1  0
 17 42  1  0
 18 43  1  0
 18 44  1  0
 19 45  1  0
 19 46  1  0
 20 47  1  0
 20 48  1  0
 21 49  1  0
 22 50  1  0
 25 51  1  0
 29 52  1  0
M  CHG  2  26   1  27  -1
M  END
> <Name>
BR020046

$$$$
BR020047
  SciTegic05062102053D

 52 55  0  0  1  0            999 V2000
   -0.4101    1.8824    8.4982 C   0  0
   -0.4046    2.8591    7.5024 C   0  0
    0.3165    0.7046    8.3239 C   0  0
   -2.0882    0.1613    4.1234 C   0  0
    0.3276    2.6579    6.3323 C   0  0
    1.0486    0.5034    7.1538 C   0  0
   -2.0444   -0.3399    2.8225 C   0  0
   -1.7910   -0.6716    5.2022 C   0  0
   -1.4062   -2.5070    3.6790 C   0  0
    2.8256    2.1160    4.5625 C   0  0
    1.0542    1.4801    6.1580 C   0  0
   -1.7034   -1.6741    2.6003 C   0  0
   -1.4501   -2.0057    4.9800 C   0  0
    1.8071    1.2728    4.9545 C   0  0
    2.3829    0.2540    3.0997 C   0  0
    0.7762   -1.7157    0.9885 C   0  0
    0.8774   -0.6507   -0.0786 C   0  0
    0.9392   -1.3024   -1.4536 C   0  0
   -0.2123   -2.2833   -1.6690 C   0  0
   -0.2338   -3.3604   -0.5828 C   0  0
   -0.2870   -2.7868    0.8375 C   0  0  2  0  0  0
   -1.6568   -2.2164    1.1932 C   0  0  1  0  0  0
    1.5515    0.2048    4.1168 N   0  0
    1.5406   -1.7097    2.0315 N   0  0
    2.4050   -0.6786    2.0508 N   0  0
   -1.1464   -2.8531    6.0780 N   0  3
   -1.1906   -2.3820    7.2402 O   0  5
   -0.8424   -4.0502    5.8563 O   0  0
   -2.6270   -3.2536    1.0759 O   0  0
    3.4991    1.5575    3.0874 S   0  0
   -0.9793    2.0394    9.4098 H   0  0
   -0.9692    3.7768    7.6384 H   0  0
    0.3130   -0.0552    9.1000 H   0  0
   -2.3531    1.2004    4.2964 H   0  0
    0.3218    3.4288    5.5652 H   0  0
    1.6099   -0.4203    7.0332 H   0  0
   -2.2778    0.3157    1.9879 H   0  0
   -1.8289   -0.2679    6.2109 H   0  0
   -1.1410   -3.5469    3.5005 H   0  0
    3.2033    3.0040    5.0505 H   0  0
    0.0018    0.0023    0.0001 H   0  0
    1.7689   -0.0374    0.0895 H   0  0
    0.9150   -0.5290   -2.2295 H   0  0
    1.8912   -1.8372   -1.5623 H   0  0
   -1.1648   -1.7412   -1.6828 H   0  0
   -0.1051   -2.7597   -2.6503 H   0  0
   -1.0814   -4.0352   -0.7505 H   0  0
    0.6752   -3.9684   -0.6827 H   0  0
   -0.0698   -3.6012    1.5403 H   0  0
   -1.9146   -1.4431    0.4616 H   0  0
    3.0869   -0.5520    1.3109 H   0  0
   -2.5730   -3.5806    0.1645 H   0  0
  1  2  2  0
  1  3  1  0
  2  5  1  0
  3  6  2  0
  4  7  1  0
  4  8  2  0
  5 11  2  0
  6 11  1  0
  7 12  2  0
  8 13  1  0
  9 12  1  0
  9 13  2  0
 10 14  2  0
 10 30  1  0
 11 14  1  0
 12 22  1  0
 13 26  1  0
 14 23  1  0
 15 23  2  0
 15 25  1  0
 15 30  1  0
 16 17  1  0
 16 21  1  0
 16 24  2  0
 17 18  1  0
 18 19  1  0
 19 20  1  0
 20 21  1  0
 21 22  1  0
 22 29  1  0
 24 25  1  0
 26 27  1  0
 26 28  2  0
  1 31  1  0
  2 32  1  0
  3 33  1  0
  4 34  1  0
  5 35  1  0
  6 36  1  0
  7 37  1  0
  8 38  1  0
  9 39  1  0
 10 40  1  0
 17 41  1  0
 17 42  1  0
 18 43  1  0
 18 44  1  0
 19 45  1  0
 19 46  1  0
 20 47  1  0
 20 48  1  0
 21 49  1  0
 22 50  1  0
 25 51  1  0
 29 52  1  0
M  CHG  2  26   1  27  -1
M  END
> <Name>
BR020047

$$$$
BR020048
  SciTegic05062102053D

 52 55  0  0  1  0            999 V2000
    8.3138   -5.2650    2.1448 C   0  0
    7.8477   -5.6754    3.3938 C   0  0
    7.4426   -4.6575    1.2404 C   0  0
   -1.4632    0.1721    4.1400 C   0  0
    6.5105   -5.4786    3.7383 C   0  0
    6.1054   -4.4607    1.5850 C   0  0
   -1.4194   -0.3295    2.8392 C   0  0
   -1.7910   -0.6709    5.2019 C   0  0
   -2.0312   -2.5171    3.6622 C   0  0
    3.5879   -5.5093    4.0475 C   0  0
    5.6393   -4.8712    2.8340 C   0  0
   -1.7034   -1.6741    2.6003 C   0  0
   -2.0750   -2.0154    4.9630 C   0  0
    4.2639   -4.6688    3.1880 C   0  0
    2.3162   -3.6608    3.1710 C   0  0
    0.7762   -1.7157    0.9885 C   0  0
    0.8774   -0.6507   -0.0786 C   0  0
    0.9392   -1.3024   -1.4536 C   0  0
   -0.2123   -2.2833   -1.6690 C   0  0
   -0.2338   -3.3604   -0.5828 C   0  0
   -0.2870   -2.7868    0.8375 C   0  0  2  0  0  0
   -1.6568   -2.2164    1.1932 C   0  0  1  0  0  0
    3.5362   -3.6085    2.6841 N   0  0
    1.5406   -1.7097    2.0315 N   0  0
    1.3043   -2.7359    2.8693 N   0  0
   -2.4074   -2.8736    6.0441 N   0  3
   -2.4401   -2.4025    7.2068 O   0  5
   -2.6599   -4.0798    5.8076 O   0  0
   -2.6270   -3.2536    1.0759 O   0  0
    1.9755   -4.9582    4.2413 S   0  0
    9.3552   -5.4172    1.8767 H   0  0
    8.5261   -6.1472    4.0985 H   0  0
    7.8061   -4.3369    0.2686 H   0  0
   -1.2414    1.2189    4.3260 H   0  0
    6.1624   -5.8042    4.7159 H   0  0
    5.4390   -3.9857    0.8688 H   0  0
   -1.1636    0.3342    2.0177 H   0  0
   -1.8213   -0.2669    6.2108 H   0  0
   -2.2521   -3.5650    3.4707 H   0  0
    3.9444   -6.3916    4.5613 H   0  0
    0.0018    0.0023    0.0001 H   0  0
    1.7689   -0.0374    0.0895 H   0  0
    0.9150   -0.5290   -2.2295 H   0  0
    1.8912   -1.8372   -1.5623 H   0  0
   -1.1648   -1.7412   -1.6828 H   0  0
   -0.1051   -2.7597   -2.6503 H   0  0
   -1.0814   -4.0352   -0.7505 H   0  0
    0.6752   -3.9684   -0.6827 H   0  0
   -0.0698   -3.6012    1.5403 H   0  0
   -1.9146   -1.4431    0.4616 H   0  0
    0.3941   -2.8643    3.2977 H   0  0
   -2.5730   -3.5806    0.1645 H   0  0
  1  2  2  0
  1  3  1  0
  2  5  1  0
  3  6  2  0
  4  7  1  0
  4  8  2  0
  5 11  2  0
  6 11  1  0
  7 12  2  0
  8 13  1  0
  9 12  1  0
  9 13  2  0
 10 14  2  0
 10 30  1  0
 11 14  1  0
 12 22  1  0
 13 26  1  0
 14 23  1  0
 15 23  2  0
 15 25  1  0
 15 30  1  0
 16 17  1  0
 16 21  1  0
 16 24  2  0
 17 18  1  0
 18 19  1  0
 19 20  1  0
 20 21  1  0
 21 22  1  0
 22 29  1  0
 24 25  1  0
 26 27  1  0
 26 28  2  0
  1 31  1  0
  2 32  1  0
  3 33  1  0
  4 34  1  0
  5 35  1  0
  6 36  1  0
  7 37  1  0
  8 38  1  0
  9 39  1  0
 10 40  1  0
 17 41  1  0
 17 42  1  0
 18 43  1  0
 18 44  1  0
 19 45  1  0
 19 46  1  0
 20 47  1  0
 20 48  1  0
 21 49  1  0
 22 50  1  0
 25 51  1  0
 29 52  1  0
M  CHG  2  26   1  27  -1
M  END
> <Name>
BR020048

$$$$
BR020049
  SciTegic05062102053D

 52 55  0  0  1  0            999 V2000
   -3.6736   -0.2471   -7.8449 C   0  0
   -3.1953    0.9254   -7.2601 C   0  0
   -3.0273   -1.4599   -7.6056 C   0  0
   -3.5793   -0.5491   -2.8815 C   0  0
   -2.0706    0.8852   -6.4360 C   0  0
   -1.9026   -1.5001   -6.7815 C   0  0
   -3.0459   -0.6756   -1.5989 C   0  0
   -3.8165   -1.6864   -3.6536 C   0  0
   -2.9867   -3.0767   -1.8604 C   0  0
    0.8818    0.3407   -5.6279 C   0  0
   -1.4242   -0.3276   -6.1967 C   0  0
   -2.7496   -1.9394   -1.0884 C   0  0
   -3.5202   -2.9502   -3.1430 C   0  0
   -0.2673   -0.3692   -5.3494 C   0  0
    0.9269   -0.9812   -3.6147 C   0  0
    0.1597   -2.0395   -0.5799 C   0  0
    0.7758   -0.7722   -0.0383 C   0  0
    1.3491   -1.0255    1.3490 C   0  0
    0.3148   -1.6525    2.2824 C   0  0
   -0.2368   -2.9560    1.7020 C   0  0
   -0.8251   -2.7938    0.2955 C   0  0  1  0  0  0
   -2.1718   -2.0761    0.2985 C   0  0  2  0  0  0
   -0.2432   -1.1281   -4.1956 N   0  0
    0.4447   -2.4316   -1.7788 N   0  0
    1.2995   -1.6113   -2.4169 N   0  0
   -3.7629   -4.1078   -3.9285 N   0  3
   -4.2443   -3.9719   -5.0793 O   0  5
   -3.4889   -5.2352   -3.4506 O   0  0
   -3.0865   -2.8212    1.0980 O   0  0
    2.0458    0.0554   -4.4010 S   0  0
   -4.5500   -0.2162   -8.4857 H   0  0
   -3.6990    1.8695   -7.4453 H   0  0
   -3.4008   -2.3728   -8.0600 H   0  0
   -3.8106    0.4349   -3.2788 H   0  0
   -1.7098    1.8079   -5.9875 H   0  0
   -1.4101   -2.4535   -6.6049 H   0  0
   -2.8637    0.2156   -1.0044 H   0  0
   -4.2328   -1.5734   -4.6515 H   0  0
   -2.7538   -4.0602   -1.4578 H   0  0
    1.0946    0.9966   -6.4609 H   0  0
    1.5630   -0.4219   -0.7143 H   0  0
    0.0000    0.0000    0.0001 H   0  0
    2.2150   -1.6948    1.2707 H   0  0
    1.7091   -0.0832    1.7769 H   0  0
    0.7785   -1.8557    3.2546 H   0  0
   -0.5016   -0.9438    2.4632 H   0  0
    0.5819   -3.6865    1.6580 H   0  0
   -0.9899   -3.3718    2.3816 H   0  0
   -0.9783   -3.7948   -0.1264 H   0  0
   -2.0447   -1.0973    0.7733 H   0  0
    2.2276   -1.4323   -2.0496 H   0  0
   -2.6888   -2.8919    1.9797 H   0  0
  1  2  2  0
  1  3  1  0
  2  5  1  0
  3  6  2  0
  4  7  1  0
  4  8  2  0
  5 11  2  0
  6 11  1  0
  7 12  2  0
  8 13  1  0
  9 12  1  0
  9 13  2  0
 10 14  2  0
 10 30  1  0
 11 14  1  0
 12 22  1  0
 13 26  1  0
 14 23  1  0
 15 23  2  0
 15 25  1  0
 15 30  1  0
 16 17  1  0
 16 21  1  0
 16 24  2  0
 17 18  1  0
 18 19  1  0
 19 20  1  0
 20 21  1  0
 21 22  1  0
 22 29  1  0
 24 25  1  0
 26 27  1  0
 26 28  2  0
  1 31  1  0
  2 32  1  0
  3 33  1  0
  4 34  1  0
  5 35  1  0
  6 36  1  0
  7 37  1  0
  8 38  1  0
  9 39  1  0
 10 40  1  0
 17 41  1  0
 17 42  1  0
 18 43  1  0
 18 44  1  0
 19 45  1  0
 19 46  1  0
 20 47  1  0
 20 48  1  0
 21 49  1  0
 22 50  1  0
 25 51  1  0
 29 52  1  0
M  CHG  2  26   1  27  -1
M  END
> <Name>
BR020049

$$$$
BR020050
  SciTegic05062102053D

 52 55  0  0  1  0            999 V2000
    6.3502   -7.0739   -3.2282 C   0  0
    5.4033   -7.6895   -4.0467 C   0  0
    5.9501   -6.1128   -2.2998 C   0  0
   -3.0176   -0.6719   -3.1276 C   0  0
    4.0563   -7.3440   -3.9369 C   0  0
    4.6032   -5.7672   -2.1900 C   0  0
   -2.4842   -0.7980   -1.8450 C   0  0
   -3.8166   -1.6871   -3.6536 C   0  0
   -3.5485   -2.9547   -1.6144 C   0  0
    1.2525   -6.9166   -3.1662 C   0  0
    3.6563   -6.3828   -3.0085 C   0  0
   -2.7496   -1.9394   -1.0884 C   0  0
   -4.0820   -2.8285   -2.8970 C   0  0
    2.2711   -6.0271   -2.8955 C   0  0
    0.5658   -4.7119   -2.4803 C   0  0
    0.1597   -2.0395   -0.5799 C   0  0
    0.7758   -0.7722   -0.0383 C   0  0
    1.3491   -1.0255    1.3490 C   0  0
    0.3148   -1.6525    2.2824 C   0  0
   -0.2368   -2.9560    1.7020 C   0  0
   -0.8251   -2.7938    0.2955 C   0  0  1  0  0  0
   -2.1718   -2.0761    0.2985 C   0  0  2  0  0  0
    1.8793   -4.7623   -2.5024 N   0  0
    0.4447   -2.4316   -1.7788 N   0  0
   -0.1758   -3.5741   -2.1257 N   0  0
   -4.8963   -3.8613   -3.4320 N   0  3
   -5.3673   -3.7275   -4.5874 O   0  5
   -5.1225   -4.8799   -2.7351 O   0  0
   -3.0865   -2.8212    1.0980 O   0  0
   -0.2616   -6.1496   -2.9202 S   0  0
    7.3988   -7.3436   -3.3128 H   0  0
    5.7143   -8.4388   -4.7687 H   0  0
    6.6874   -5.6345   -1.6617 H   0  0
   -2.8115    0.2171   -3.7165 H   0  0
    3.3301   -7.8329   -4.5822 H   0  0
    4.3076   -5.0160   -1.4612 H   0  0
   -1.8624   -0.0026   -1.4431 H   0  0
   -4.2261   -1.5759   -4.6545 H   0  0
   -3.7525   -3.8431   -1.0204 H   0  0
    1.3132   -7.9487   -3.4833 H   0  0
    1.5630   -0.4219   -0.7143 H   0  0
    0.0000    0.0000    0.0001 H   0  0
    2.2150   -1.6948    1.2707 H   0  0
    1.7091   -0.0832    1.7769 H   0  0
    0.7785   -1.8557    3.2546 H   0  0
   -0.5016   -0.9438    2.4632 H   0  0
    0.5819   -3.6865    1.6580 H   0  0
   -0.9899   -3.3718    2.3816 H   0  0
   -0.9783   -3.7948   -0.1264 H   0  0
   -2.0447   -1.0973    0.7733 H   0  0
   -1.1878   -3.6377   -2.1402 H   0  0
   -2.6888   -2.8919    1.9797 H   0  0
  1  2  2  0
  1  3  1  0
  2  5  1  0
  3  6  2  0
  4  7  1  0
  4  8  2  0
  5 11  2  0
  6 11  1  0
  7 12  2  0
  8 13  1  0
  9 12  1  0
  9 13  2  0
 10 14  2  0
 10 30  1  0
 11 14  1  0
 12 22  1  0
 13 26  1  0
 14 23  1  0
 15 23  2  0
 15 25  1  0
 15 30  1  0
 16 17  1  0
 16 21  1  0
 16 24  2  0
 17 18  1  0
 18 19  1  0
 19 20  1  0
 20 21  1  0
 21 22  1  0
 22 29  1  0
 24 25  1  0
 26 27  1  0
 26 28  2  0
  1 31  1  0
  2 32  1  0
  3 33  1  0
  4 34  1  0
  5 35  1  0
  6 36  1  0
  7 37  1  0
  8 38  1  0
  9 39  1  0
 10 40  1  0
 17 41  1  0
 17 42  1  0
 18 43  1  0
 18 44  1  0
 19 45  1  0
 19 46  1  0
 20 47  1  0
 20 48  1  0
 21 49  1  0
 22 50  1  0
 25 51  1  0
 29 52  1  0
M  CHG  2  26   1  27  -1
M  END
> <Name>
BR020050

$$$$
BR020051
  SciTegic05062102053D

 52 55  0  0  1  0            999 V2000
    8.3002   -5.2910    2.1230 C   0  0
    8.6916   -4.1043    2.7429 C   0  0
    7.0562   -5.3738    1.4974 C   0  0
   -4.8455   -3.9998    0.1553 C   0  0
    7.8389   -3.0004    2.7372 C   0  0
    6.2036   -4.2699    1.4918 C   0  0
   -3.8354   -3.0421    0.2458 C   0  0
   -4.7700   -5.1671    0.9152 C   0  0
   -2.6742   -4.4191    1.8560 C   0  0
    6.1841   -0.6502    2.1240 C   0  0
    6.5949   -3.0832    2.1117 C   0  0
   -2.7497   -3.2518    1.0961 C   0  0
   -3.6843   -5.3768    1.7655 C   0  0
    5.7177   -1.9480    2.1059 C   0  0
    3.7891   -0.9041    2.0758 C   0  0
    0.7762   -1.7157    0.9885 C   0  0
    0.8774   -0.6507   -0.0786 C   0  0
    0.9392   -1.3024   -1.4536 C   0  0
   -0.2123   -2.2833   -1.6690 C   0  0
   -0.2338   -3.3604   -0.5828 C   0  0
   -0.2870   -2.7868    0.8375 C   0  0  2  0  0  0
   -1.6568   -2.2164    1.1932 C   0  0  2  0  0  0
    4.3446   -2.0956    2.0787 N   0  0
    1.5406   -1.7097    2.0315 N   0  0
    2.4040   -0.6778    2.0515 N   0  0
   -3.6082   -6.5644    2.5398 N   0  3
   -4.5281   -7.4126    2.4445 O   0  5
   -2.6229   -6.7337    3.2982 O   0  0
   -1.6160   -1.7261    2.5307 O   0  0
    4.8585    0.4378    2.1044 S   0  0
    8.9644   -6.1503    2.1263 H   0  0
    9.6606   -4.0393    3.2289 H   0  0
    6.7523   -6.2974    1.0137 H   0  0
   -5.6912   -3.8362   -0.5063 H   0  0
    8.1584   -2.0823    3.2249 H   0  0
    5.2370   -4.3505    0.9997 H   0  0
   -3.9018   -2.1358   -0.3501 H   0  0
   -5.5643   -5.9051    0.8352 H   0  0
   -1.8253   -4.5781    2.5176 H   0  0
    7.2039   -0.2910    2.1436 H   0  0
    0.0018    0.0023    0.0001 H   0  0
    1.7689   -0.0374    0.0895 H   0  0
    0.9150   -0.5290   -2.2295 H   0  0
    1.8912   -1.8372   -1.5623 H   0  0
   -1.1648   -1.7412   -1.6828 H   0  0
   -0.1051   -2.7597   -2.6503 H   0  0
   -1.0814   -4.0352   -0.7505 H   0  0
    0.6752   -3.9684   -0.6827 H   0  0
   -0.0698   -3.6012    1.5403 H   0  0
   -1.8603   -1.3625    0.5381 H   0  0
    2.0748    0.2814    2.0514 H   0  0
   -0.9069   -1.0653    2.5612 H   0  0
  1  2  2  0
  1  3  1  0
  2  5  1  0
  3  6  2  0
  4  7  1  0
  4  8  2  0
  5 11  2  0
  6 11  1  0
  7 12  2  0
  8 13  1  0
  9 12  1  0
  9 13  2  0
 10 14  2  0
 10 30  1  0
 11 14  1  0
 12 22  1  0
 13 26  1  0
 14 23  1  0
 15 23  2  0
 15 25  1  0
 15 30  1  0
 16 17  1  0
 16 21  1  0
 16 24  2  0
 17 18  1  0
 18 19  1  0
 19 20  1  0
 20 21  1  0
 21 22  1  0
 22 29  1  0
 24 25  1  0
 26 27  1  0
 26 28  2  0
  1 31  1  0
  2 32  1  0
  3 33  1  0
  4 34  1  0
  5 35  1  0
  6 36  1  0
  7 37  1  0
  8 38  1  0
  9 39  1  0
 10 40  1  0
 17 41  1  0
 17 42  1  0
 18 43  1  0
 18 44  1  0
 19 45  1  0
 19 46  1  0
 20 47  1  0
 20 48  1  0
 21 49  1  0
 22 50  1  0
 25 51  1  0
 29 52  1  0
M  CHG  2  26   1  27  -1
M  END
> <Name>
BR020051

$$$$
BR020052
  SciTegic05062102053D

 52 55  0  0  1  0            999 V2000
    8.3173   -5.2583    2.1422 C   0  0
    7.8517   -5.6702    3.3908 C   0  0
    7.4455   -4.6511    1.2383 C   0  0
   -4.8455   -3.9998    0.1553 C   0  0
    6.5143   -5.4749    3.7356 C   0  0
    6.1081   -4.4559    1.5830 C   0  0
   -3.8354   -3.0421    0.2458 C   0  0
   -4.7700   -5.1671    0.9152 C   0  0
   -2.6742   -4.4191    1.8560 C   0  0
    3.5917   -5.5088    4.0447 C   0  0
    5.6425   -4.8678    2.8317 C   0  0
   -2.7497   -3.2518    1.0961 C   0  0
   -3.6843   -5.3768    1.7655 C   0  0
    4.2669   -4.6670    3.1859 C   0  0
    2.3182   -3.6608    3.1696 C   0  0
    0.7762   -1.7157    0.9885 C   0  0
    0.8774   -0.6507   -0.0786 C   0  0
    0.9392   -1.3024   -1.4536 C   0  0
   -0.2123   -2.2833   -1.6690 C   0  0
   -0.2338   -3.3604   -0.5828 C   0  0
   -0.2870   -2.7868    0.8375 C   0  0  2  0  0  0
   -1.6568   -2.2164    1.1932 C   0  0  2  0  0  0
    3.5381   -3.6070    2.6827 N   0  0
    1.5406   -1.7097    2.0315 N   0  0
    1.3053   -2.7368    2.8686 N   0  0
   -3.6082   -6.5644    2.5398 N   0  3
   -4.5281   -7.4126    2.4445 O   0  5
   -2.6229   -6.7337    3.2982 O   0  0
   -1.6160   -1.7261    2.5307 O   0  0
    1.9787   -4.9594    4.2390 S   0  0
    9.3589   -5.4093    1.8740 H   0  0
    8.5305   -6.1418    4.0953 H   0  0
    7.8086   -4.3294    0.2666 H   0  0
   -5.6912   -3.8362   -0.5063 H   0  0
    6.1664   -5.8015    4.7129 H   0  0
    5.4412   -3.9810    0.8671 H   0  0
   -3.9018   -2.1358   -0.3501 H   0  0
   -5.5643   -5.9051    0.8352 H   0  0
   -1.8253   -4.5781    2.5176 H   0  0
    3.9491   -6.3911    4.5579 H   0  0
    0.0018    0.0023    0.0001 H   0  0
    1.7689   -0.0374    0.0895 H   0  0
    0.9150   -0.5290   -2.2295 H   0  0
    1.8912   -1.8372   -1.5623 H   0  0
   -1.1648   -1.7412   -1.6828 H   0  0
   -0.1051   -2.7597   -2.6503 H   0  0
   -1.0814   -4.0352   -0.7505 H   0  0
    0.6752   -3.9684   -0.6827 H   0  0
   -0.0698   -3.6012    1.5403 H   0  0
   -1.8603   -1.3625    0.5381 H   0  0
    0.3953   -2.8663    3.2968 H   0  0
   -0.9069   -1.0653    2.5612 H   0  0
  1  2  2  0
  1  3  1  0
  2  5  1  0
  3  6  2  0
  4  7  1  0
  4  8  2  0
  5 11  2  0
  6 11  1  0
  7 12  2  0
  8 13  1  0
  9 12  1  0
  9 13  2  0
 10 14  2  0
 10 30  1  0
 11 14  1  0
 12 22  1  0
 13 26  1  0
 14 23  1  0
 15 23  2  0
 15 25  1  0
 15 30  1  0
 16 17  1  0
 16 21  1  0
 16 24  2  0
 17 18  1  0
 18 19  1  0
 19 20  1  0
 20 21  1  0
 21 22  1  0
 22 29  1  0
 24 25  1  0
 26 27  1  0
 26 28  2  0
  1 31  1  0
  2 32  1  0
  3 33  1  0
  4 34  1  0
  5 35  1  0
  6 36  1  0
  7 37  1  0
  8 38  1  0
  9 39  1  0
 10 40  1  0
 17 41  1  0
 17 42  1  0
 18 43  1  0
 18 44  1  0
 19 45  1  0
 19 46  1  0
 20 47  1  0
 20 48  1  0
 21 49  1  0
 22 50  1  0
 25 51  1  0
 29 52  1  0
M  CHG  2  26   1  27  -1
M  END
> <Name>
BR020052

$$$$
BR020053
  SciTegic05062102053D

 52 55  0  0  1  0            999 V2000
   -0.1363   -1.0688   -7.4669 C   0  0
    3.9739   -7.9120   -0.2724 C   0  0
    4.1520   -6.1732   -1.9404 C   0  0
    0.0598   -1.6913   -6.2342 C   0  0
   -1.0410   -0.0130   -7.5790 C   0  0
    4.8351   -8.7162   -1.0187 C   0  0
    5.0133   -6.9775   -2.6868 C   0  0
   -1.5537   -0.2025   -5.2256 C   0  0
    2.6703   -5.8851    1.4097 C   0  0
    3.6323   -6.6405   -0.7332 C   0  0
   -0.6489   -1.2582   -5.1136 C   0  0
   -1.7498    0.4201   -6.4584 C   0  0
    5.3548   -8.2490   -2.2259 C   0  0
    2.7468   -5.8131    0.0345 C   0  0
    1.2222   -4.2707    0.3611 C   0  0
    0.2649   -1.6144   -1.3550 C   0  0
    0.7827   -0.7258   -0.2469 C   0  0
    2.0429   -0.0129   -0.7212 C   0  0
    1.8139    0.7168   -2.0450 C   0  0
    1.3070   -0.2362   -3.1300 C   0  0
    0.0198   -0.9541   -2.7036 C   0  0  1  0  0  0
   -0.4374   -1.9322   -3.7805 C   0  0  1  0  0  0
    1.9169   -4.8882   -0.5685 N   0  0
    0.0221   -2.8687   -1.1557 N   0  0
    0.2767   -3.2654    0.1047 N   0  0
   -2.6698    1.4955   -6.5723 N   0  3
   -2.8304    2.0425   -7.6902 O   0  5
   -3.2974    1.8694   -5.5521 O   0  0
   -1.6694   -2.5191   -3.3698 O   0  0
    1.5170   -4.7520    1.9818 S   0  0
    6.4164   -9.2411   -3.1482 Cl  0  0
    0.4161   -1.4056   -8.3393 H   0  0
    3.5777   -8.2914    0.6668 H   0  0
    3.8951   -5.1844   -2.3130 H   0  0
    0.7662   -2.5134   -6.1558 H   0  0
   -1.1841    0.4634   -8.5457 H   0  0
    5.0926   -9.7048   -0.6474 H   0  0
    5.4095   -6.6008   -3.6261 H   0  0
   -2.1042    0.1315   -4.3487 H   0  0
    3.2168   -6.5219    2.0919 H   0  0
    0.0193    0.0026    0.0339 H   0  0
    0.9969   -1.3493    0.6237 H   0  0
    2.3611    0.7117    0.0381 H   0  0
    2.8556   -0.7381   -0.8355 H   0  0
    1.0806    1.5189   -1.8953 H   0  0
    2.7445    1.1984   -2.3698 H   0  0
    1.1031    0.3448   -4.0313 H   0  0
    2.0819   -0.9612   -3.3759 H   0  0
   -0.7563   -0.1829   -2.5914 H   0  0
    0.2998   -2.7387   -3.8566 H   0  0
   -0.2075   -2.8502    0.8931 H   0  0
   -1.5018   -2.9427   -2.5137 H   0  0
  1  4  1  0
  1  5  2  0
  2  6  2  0
  2 10  1  0
  3  7  1  0
  3 10  2  0
  4 11  2  0
  5 12  1  0
  6 13  1  0
  7 13  2  0
  8 11  1  0
  8 12  2  0
  9 14  2  0
  9 30  1  0
 10 14  1  0
 11 22  1  0
 12 26  1  0
 13 31  1  0
 14 23  1  0
 15 23  2  0
 15 25  1  0
 15 30  1  0
 16 17  1  0
 16 21  1  0
 16 24  2  0
 17 18  1  0
 18 19  1  0
 19 20  1  0
 20 21  1  0
 21 22  1  0
 22 29  1  0
 24 25  1  0
 26 27  1  0
 26 28  2  0
  1 32  1  0
  2 33  1  0
  3 34  1  0
  4 35  1  0
  5 36  1  0
  6 37  1  0
  7 38  1  0
  8 39  1  0
  9 40  1  0
 17 41  1  0
 17 42  1  0
 18 43  1  0
 18 44  1  0
 19 45  1  0
 19 46  1  0
 20 47  1  0
 20 48  1  0
 21 49  1  0
 22 50  1  0
 25 51  1  0
 29 52  1  0
M  CHG  2  26   1  27  -1
M  END
> <Name>
BR020053

$$$$
BR020054
  SciTegic05062102053D

 52 55  0  0  1  0            999 V2000
   -4.7835   -2.8223    2.9533 C   0  0
    4.0561   -7.3440   -3.9370 C   0  0
    4.6033   -5.7677   -2.1897 C   0  0
   -3.8274   -2.1520    2.1904 C   0  0
   -5.1174   -4.1423    2.6503 C   0  0
    5.4029   -7.6900   -4.0466 C   0  0
    5.9501   -6.1138   -2.2993 C   0  0
   -3.5392   -4.1215    0.8211 C   0  0
    1.2525   -6.9166   -3.1662 C   0  0
    3.6563   -6.3828   -3.0085 C   0  0
   -3.2053   -2.8015    1.1242 C   0  0
   -4.4952   -4.7919    1.5841 C   0  0
    6.3499   -7.0749   -3.2278 C   0  0
    2.2711   -6.0271   -2.8955 C   0  0
    0.5658   -4.7119   -2.4803 C   0  0
    0.1597   -2.0395   -0.5799 C   0  0
    0.7758   -0.7722   -0.0383 C   0  0
    1.3491   -1.0255    1.3490 C   0  0
    0.3148   -1.6525    2.2824 C   0  0
   -0.2368   -2.9560    1.7020 C   0  0
   -0.8251   -2.7938    0.2955 C   0  0  1  0  0  0
   -2.1718   -2.0761    0.2985 C   0  0  1  0  0  0
    1.8793   -4.7623   -2.5024 N   0  0
    0.4447   -2.4316   -1.7788 N   0  0
   -0.1758   -3.5741   -2.1257 N   0  0
   -4.8343   -6.1359    1.2765 N   0  3
   -5.6961   -6.7211    1.9761 O   0  5
   -4.2631   -6.7018    0.3131 O   0  0
   -2.6447   -1.9886   -1.0429 O   0  0
   -0.2616   -6.1496   -2.9202 S   0  0
    8.0120   -7.5002   -3.3631 Cl  0  0
   -5.2675   -2.3167    3.7839 H   0  0
    3.3306   -7.8333   -4.5829 H   0  0
    4.3073   -5.0165   -1.4611 H   0  0
   -3.5736   -1.1236    2.4330 H   0  0
   -5.8641   -4.6531    3.2532 H   0  0
    5.7001   -8.4406   -4.7745 H   0  0
    6.6770   -5.6252   -1.6556 H   0  0
   -3.0512   -4.6238   -0.0115 H   0  0
    1.3132   -7.9487   -3.4833 H   0  0
    1.5630   -0.4219   -0.7143 H   0  0
    0.0000    0.0000    0.0001 H   0  0
    2.2150   -1.6948    1.2707 H   0  0
    1.7091   -0.0832    1.7769 H   0  0
    0.7785   -1.8557    3.2546 H   0  0
   -0.5016   -0.9438    2.4632 H   0  0
    0.5819   -3.6865    1.6580 H   0  0
   -0.9899   -3.3718    2.3816 H   0  0
   -0.9783   -3.7948   -0.1264 H   0  0
   -2.0224   -1.0531    0.6601 H   0  0
   -1.1878   -3.6377   -2.1402 H   0  0
   -3.4795   -1.4962   -1.0101 H   0  0
  1  4  1  0
  1  5  2  0
  2  6  2  0
  2 10  1  0
  3  7  1  0
  3 10  2  0
  4 11  2  0
  5 12  1  0
  6 13  1  0
  7 13  2  0
  8 11  1  0
  8 12  2  0
  9 14  2  0
  9 30  1  0
 10 14  1  0
 11 22  1  0
 12 26  1  0
 13 31  1  0
 14 23  1  0
 15 23  2  0
 15 25  1  0
 15 30  1  0
 16 17  1  0
 16 21  1  0
 16 24  2  0
 17 18  1  0
 18 19  1  0
 19 20  1  0
 20 21  1  0
 21 22  1  0
 22 29  1  0
 24 25  1  0
 26 27  1  0
 26 28  2  0
  1 32  1  0
  2 33  1  0
  3 34  1  0
  4 35  1  0
  5 36  1  0
  6 37  1  0
  7 38  1  0
  8 39  1  0
  9 40  1  0
 17 41  1  0
 17 42  1  0
 18 43  1  0
 18 44  1  0
 19 45  1  0
 19 46  1  0
 20 47  1  0
 20 48  1  0
 21 49  1  0
 22 50  1  0
 25 51  1  0
 29 52  1  0
M  CHG  2  26   1  27  -1
M  END
> <Name>
BR020054

$$$$
BR020055
  SciTegic05062102053D

 52 55  0  0  1  0            999 V2000
   -2.0882    0.1613    4.1234 C   0  0
    0.3276    2.6580    6.3321 C   0  0
    1.0489    0.5038    7.1542 C   0  0
   -2.0444   -0.3399    2.8225 C   0  0
   -1.7910   -0.6716    5.2022 C   0  0
   -0.4042    2.8596    7.5023 C   0  0
    0.3172    0.7053    8.3244 C   0  0
   -1.4062   -2.5070    3.6790 C   0  0
    2.8256    2.1160    4.5625 C   0  0
    1.0542    1.4801    6.1580 C   0  0
   -1.7034   -1.6741    2.6003 C   0  0
   -1.4501   -2.0057    4.9800 C   0  0
   -0.4094    1.8833    8.4985 C   0  0
    1.8071    1.2728    4.9545 C   0  0
    2.3829    0.2540    3.0997 C   0  0
    0.7762   -1.7157    0.9885 C   0  0
    0.8774   -0.6507   -0.0786 C   0  0
    0.9392   -1.3024   -1.4536 C   0  0
   -0.2123   -2.2833   -1.6690 C   0  0
   -0.2338   -3.3604   -0.5828 C   0  0
   -0.2870   -2.7868    0.8375 C   0  0  2  0  0  0
   -1.6568   -2.2164    1.1932 C   0  0  1  0  0  0
    1.5515    0.2048    4.1168 N   0  0
    1.5406   -1.7097    2.0315 N   0  0
    2.4050   -0.6786    2.0508 N   0  0
   -1.1464   -2.8531    6.0780 N   0  3
   -1.1906   -2.3820    7.2402 O   0  5
   -0.8424   -4.0502    5.8563 O   0  0
   -2.6270   -3.2536    1.0759 O   0  0
    3.4991    1.5575    3.0874 S   0  0
   -1.3130    2.1305    9.9421 Cl  0  0
   -2.3531    1.2004    4.2964 H   0  0
    0.3211    3.4295    5.5653 H   0  0
    1.6102   -0.4199    7.0332 H   0  0
   -2.2778    0.3157    1.9879 H   0  0
   -1.8289   -0.2679    6.2109 H   0  0
   -0.9656    3.7823    7.6244 H   0  0
    0.3213   -0.0648    9.0915 H   0  0
   -1.1410   -3.5469    3.5005 H   0  0
    3.2033    3.0040    5.0505 H   0  0
    0.0018    0.0023    0.0001 H   0  0
    1.7689   -0.0374    0.0895 H   0  0
    0.9150   -0.5290   -2.2295 H   0  0
    1.8912   -1.8372   -1.5623 H   0  0
   -1.1648   -1.7412   -1.6828 H   0  0
   -0.1051   -2.7597   -2.6503 H   0  0
   -1.0814   -4.0352   -0.7505 H   0  0
    0.6752   -3.9684   -0.6827 H   0  0
   -0.0698   -3.6012    1.5403 H   0  0
   -1.9146   -1.4431    0.4616 H   0  0
    3.0869   -0.5520    1.3109 H   0  0
   -2.5730   -3.5806    0.1645 H   0  0
  1  4  1  0
  1  5  2  0
  2  6  2  0
  2 10  1  0
  3  7  1  0
  3 10  2  0
  4 11  2  0
  5 12  1  0
  6 13  1  0
  7 13  2  0
  8 11  1  0
  8 12  2  0
  9 14  2  0
  9 30  1  0
 10 14  1  0
 11 22  1  0
 12 26  1  0
 13 31  1  0
 14 23  1  0
 15 23  2  0
 15 25  1  0
 15 30  1  0
 16 17  1  0
 16 21  1  0
 16 24  2  0
 17 18  1  0
 18 19  1  0
 19 20  1  0
 20 21  1  0
 21 22  1  0
 22 29  1  0
 24 25  1  0
 26 27  1  0
 26 28  2  0
  1 32  1  0
  2 33  1  0
  3 34  1  0
  4 35  1  0
  5 36  1  0
  6 37  1  0
  7 38  1  0
  8 39  1  0
  9 40  1  0
 17 41  1  0
 17 42  1  0
 18 43  1  0
 18 44  1  0
 19 45  1  0
 19 46  1  0
 20 47  1  0
 20 48  1  0
 21 49  1  0
 22 50  1  0
 25 51  1  0
 29 52  1  0
M  CHG  2  26   1  27  -1
M  END
> <Name>
BR020055

$$$$
BR020056
  SciTegic05062102053D

 52 55  0  0  1  0            999 V2000
   -1.4632    0.1721    4.1400 C   0  0
    6.5103   -5.4786    3.7385 C   0  0
    6.1057   -4.4603    1.5853 C   0  0
   -1.4194   -0.3295    2.8392 C   0  0
   -1.7910   -0.6709    5.2019 C   0  0
    7.8477   -5.6751    3.3943 C   0  0
    7.4431   -4.6568    1.2411 C   0  0
   -2.0312   -2.5171    3.6622 C   0  0
    3.5879   -5.5093    4.0475 C   0  0
    5.6393   -4.8712    2.8340 C   0  0
   -1.7034   -1.6741    2.6003 C   0  0
   -2.0750   -2.0154    4.9630 C   0  0
    8.3141   -5.2642    2.1456 C   0  0
    4.2639   -4.6688    3.1880 C   0  0
    2.3162   -3.6608    3.1710 C   0  0
    0.7762   -1.7157    0.9885 C   0  0
    0.8774   -0.6507   -0.0786 C   0  0
    0.9392   -1.3024   -1.4536 C   0  0
   -0.2123   -2.2833   -1.6690 C   0  0
   -0.2338   -3.3604   -0.5828 C   0  0
   -0.2870   -2.7868    0.8375 C   0  0  2  0  0  0
   -1.6568   -2.2164    1.1932 C   0  0  1  0  0  0
    3.5362   -3.6085    2.6841 N   0  0
    1.5406   -1.7097    2.0315 N   0  0
    1.3043   -2.7359    2.8693 N   0  0
   -2.4074   -2.8736    6.0441 N   0  3
   -2.4401   -2.4025    7.2068 O   0  5
   -2.6599   -4.0798    5.8076 O   0  0
   -2.6270   -3.2536    1.0759 O   0  0
    1.9755   -4.9582    4.2413 S   0  0
    9.9636   -5.5073    1.7194 Cl  0  0
   -1.2414    1.2189    4.3260 H   0  0
    6.1630   -5.8048    4.7163 H   0  0
    5.4391   -3.9854    0.8692 H   0  0
   -1.1636    0.3342    2.0177 H   0  0
   -1.8213   -0.2669    6.2108 H   0  0
    8.5151   -6.1497    4.1090 H   0  0
    7.7921   -4.3326    0.2641 H   0  0
   -2.2521   -3.5650    3.4707 H   0  0
    3.9444   -6.3916    4.5613 H   0  0
    0.0018    0.0023    0.0001 H   0  0
    1.7689   -0.0374    0.0895 H   0  0
    0.9150   -0.5290   -2.2295 H   0  0
    1.8912   -1.8372   -1.5623 H   0  0
   -1.1648   -1.7412   -1.6828 H   0  0
   -0.1051   -2.7597   -2.6503 H   0  0
   -1.0814   -4.0352   -0.7505 H   0  0
    0.6752   -3.9684   -0.6827 H   0  0
   -0.0698   -3.6012    1.5403 H   0  0
   -1.9146   -1.4431    0.4616 H   0  0
    0.3941   -2.8643    3.2977 H   0  0
   -2.5730   -3.5806    0.1645 H   0  0
  1  4  1  0
  1  5  2  0
  2  6  2  0
  2 10  1  0
  3  7  1  0
  3 10  2  0
  4 11  2  0
  5 12  1  0
  6 13  1  0
  7 13  2  0
  8 11  1  0
  8 12  2  0
  9 14  2  0
  9 30  1  0
 10 14  1  0
 11 22  1  0
 12 26  1  0
 13 31  1  0
 14 23  1  0
 15 23  2  0
 15 25  1  0
 15 30  1  0
 16 17  1  0
 16 21  1  0
 16 24  2  0
 17 18  1  0
 18 19  1  0
 19 20  1  0
 20 21  1  0
 21 22  1  0
 22 29  1  0
 24 25  1  0
 26 27  1  0
 26 28  2  0
  1 32  1  0
  2 33  1  0
  3 34  1  0
  4 35  1  0
  5 36  1  0
  6 37  1  0
  7 38  1  0
  8 39  1  0
  9 40  1  0
 17 41  1  0
 17 42  1  0
 18 43  1  0
 18 44  1  0
 19 45  1  0
 19 46  1  0
 20 47  1  0
 20 48  1  0
 21 49  1  0
 22 50  1  0
 25 51  1  0
 29 52  1  0
M  CHG  2  26   1  27  -1
M  END
> <Name>
BR020056

$$$$
BR020057
  SciTegic05062102053D

 52 55  0  0  0  0            999 V2000
   -3.5793   -0.5491   -2.8815 C   0  0
   -2.0704    0.8853   -6.4359 C   0  0
   -1.9031   -1.5001   -6.7812 C   0  0
   -3.0459   -0.6756   -1.5989 C   0  0
   -3.8165   -1.6864   -3.6536 C   0  0
   -3.1953    0.9256   -7.2595 C   0  0
   -3.0281   -1.4597   -7.6048 C   0  0
   -2.9867   -3.0767   -1.8604 C   0  0
    0.8818    0.3407   -5.6279 C   0  0
   -1.4242   -0.3276   -6.1967 C   0  0
   -2.7496   -1.9394   -1.0884 C   0  0
   -3.5202   -2.9502   -3.1430 C   0  0
   -3.6742   -0.2469   -7.8440 C   0  0
   -0.2673   -0.3692   -5.3494 C   0  0
    0.9269   -0.9812   -3.6147 C   0  0
    0.1597   -2.0395   -0.5799 C   0  0
    0.7758   -0.7722   -0.0383 C   0  0
    1.3491   -1.0255    1.3490 C   0  0
    0.3148   -1.6525    2.2824 C   0  0
   -0.2368   -2.9560    1.7020 C   0  0
   -0.8251   -2.7938    0.2955 C   0  0  1  0  0  0
   -2.1718   -2.0761    0.2985 C   0  0  2  0  0  0
   -0.2432   -1.1281   -4.1956 N   0  0
    0.4447   -2.4316   -1.7788 N   0  0
    1.2995   -1.6113   -2.4169 N   0  0
   -3.7629   -4.1078   -3.9285 N   0  3
   -4.2443   -3.9719   -5.0793 O   0  5
   -3.4889   -5.2352   -3.4506 O   0  0
   -3.0865   -2.8212    1.0980 O   0  0
    2.0458    0.0554   -4.4010 S   0  0
   -5.0614   -0.1980   -8.8613 Cl  0  0
   -3.8106    0.4349   -3.2788 H   0  0
   -1.7102    1.8086   -5.9879 H   0  0
   -1.4103   -2.4533   -6.6044 H   0  0
   -2.8637    0.2156   -1.0044 H   0  0
   -4.2328   -1.5734   -4.6515 H   0  0
   -3.6888    1.8777   -7.4371 H   0  0
   -3.3891   -2.3811   -8.0544 H   0  0
   -2.7538   -4.0602   -1.4578 H   0  0
    1.0946    0.9966   -6.4609 H   0  0
    1.5630   -0.4219   -0.7143 H   0  0
    0.0000    0.0000    0.0001 H   0  0
    2.2150   -1.6948    1.2707 H   0  0
    1.7091   -0.0832    1.7769 H   0  0
    0.7785   -1.8557    3.2546 H   0  0
   -0.5016   -0.9438    2.4632 H   0  0
    0.5819   -3.6865    1.6580 H   0  0
   -0.9899   -3.3718    2.3816 H   0  0
   -0.9783   -3.7948   -0.1264 H   0  0
   -2.0447   -1.0973    0.7733 H   0  0
    2.2276   -1.4323   -2.0496 H   0  0
   -2.6888   -2.8919    1.9797 H   0  0
  1  4  1  0
  1  5  2  0
  2  6  2  0
  2 10  1  0
  3  7  1  0
  3 10  2  0
  4 11  2  0
  5 12  1  0
  6 13  1  0
  7 13  2  0
  8 11  1  0
  8 12  2  0
  9 14  2  0
  9 30  1  0
 10 14  1  0
 11 22  1  0
 12 26  1  0
 13 31  1  0
 14 23  1  0
 15 23  2  0
 15 25  1  0
 15 30  1  0
 16 17  1  0
 16 21  1  0
 16 24  2  0
 17 18  1  0
 18 19  1  0
 19 20  1  0
 20 21  1  0
 21 22  1  0
 22 29  1  0
 24 25  1  0
 26 27  1  0
 26 28  2  0
  1 32  1  0
  2 33  1  0
  3 34  1  0
  4 35  1  0
  5 36  1  0
  6 37  1  0
  7 38  1  0
  8 39  1  0
  9 40  1  0
 17 41  1  0
 17 42  1  0
 18 43  1  0
 18 44  1  0
 19 45  1  0
 19 46  1  0
 20 47  1  0
 20 48  1  0
 21 49  1  0
 22 50  1  0
 25 51  1  0
 29 52  1  0
M  CHG  2  26   1  27  -1
M  END
> <Name>
BR020057

$$$$
BR020058
  SciTegic05062102053D

 52 55  0  0  1  0            999 V2000
   -3.0176   -0.6719   -3.1276 C   0  0
    4.0561   -7.3440   -3.9370 C   0  0
    4.6033   -5.7677   -2.1897 C   0  0
   -2.4842   -0.7980   -1.8450 C   0  0
   -3.8166   -1.6871   -3.6536 C   0  0
    5.4029   -7.6900   -4.0466 C   0  0
    5.9501   -6.1138   -2.2993 C   0  0
   -3.5485   -2.9547   -1.6144 C   0  0
    1.2525   -6.9166   -3.1662 C   0  0
    3.6563   -6.3828   -3.0085 C   0  0
   -2.7496   -1.9394   -1.0884 C   0  0
   -4.0820   -2.8285   -2.8970 C   0  0
    6.3499   -7.0749   -3.2278 C   0  0
    2.2711   -6.0271   -2.8955 C   0  0
    0.5658   -4.7119   -2.4803 C   0  0
    0.1597   -2.0395   -0.5799 C   0  0
    0.7758   -0.7722   -0.0383 C   0  0
    1.3491   -1.0255    1.3490 C   0  0
    0.3148   -1.6525    2.2824 C   0  0
   -0.2368   -2.9560    1.7020 C   0  0
   -0.8251   -2.7938    0.2955 C   0  0  1  0  0  0
   -2.1718   -2.0761    0.2985 C   0  0  2  0  0  0
    1.8793   -4.7623   -2.5024 N   0  0
    0.4447   -2.4316   -1.7788 N   0  0
   -0.1758   -3.5741   -2.1257 N   0  0
   -4.8963   -3.8613   -3.4320 N   0  3
   -5.3673   -3.7275   -4.5874 O   0  5
   -5.1225   -4.8799   -2.7351 O   0  0
   -3.0865   -2.8212    1.0980 O   0  0
   -0.2616   -6.1496   -2.9202 S   0  0
    8.0120   -7.5002   -3.3631 Cl  0  0
   -2.8115    0.2171   -3.7165 H   0  0
    3.3306   -7.8333   -4.5829 H   0  0
    4.3073   -5.0165   -1.4611 H   0  0
   -1.8624   -0.0026   -1.4431 H   0  0
   -4.2261   -1.5759   -4.6545 H   0  0
    5.7001   -8.4406   -4.7745 H   0  0
    6.6770   -5.6252   -1.6556 H   0  0
   -3.7525   -3.8431   -1.0204 H   0  0
    1.3132   -7.9487   -3.4833 H   0  0
    1.5630   -0.4219   -0.7143 H   0  0
    0.0000    0.0000    0.0001 H   0  0
    2.2150   -1.6948    1.2707 H   0  0
    1.7091   -0.0832    1.7769 H   0  0
    0.7785   -1.8557    3.2546 H   0  0
   -0.5016   -0.9438    2.4632 H   0  0
    0.5819   -3.6865    1.6580 H   0  0
   -0.9899   -3.3718    2.3816 H   0  0
   -0.9783   -3.7948   -0.1264 H   0  0
   -2.0447   -1.0973    0.7733 H   0  0
   -1.1878   -3.6377   -2.1402 H   0  0
   -2.6888   -2.8919    1.9797 H   0  0
  1  4  1  0
  1  5  2  0
  2  6  2  0
  2 10  1  0
  3  7  1  0
  3 10  2  0
  4 11  2  0
  5 12  1  0
  6 13  1  0
  7 13  2  0
  8 11  1  0
  8 12  2  0
  9 14  2  0
  9 30  1  0
 10 14  1  0
 11 22  1  0
 12 26  1  0
 13 31  1  0
 14 23  1  0
 15 23  2  0
 15 25  1  0
 15 30  1  0
 16 17  1  0
 16 21  1  0
 16 24  2  0
 17 18  1  0
 18 19  1  0
 19 20  1  0
 20 21  1  0
 21 22  1  0
 22 29  1  0
 24 25  1  0
 26 27  1  0
 26 28  2  0
  1 32  1  0
  2 33  1  0
  3 34  1  0
  4 35  1  0
  5 36  1  0
  6 37  1  0
  7 38  1  0
  8 39  1  0
  9 40  1  0
 17 41  1  0
 17 42  1  0
 18 43  1  0
 18 44  1  0
 19 45  1  0
 19 46  1  0
 20 47  1  0
 20 48  1  0
 21 49  1  0
 22 50  1  0
 25 51  1  0
 29 52  1  0
M  CHG  2  26   1  27  -1
M  END
> <Name>
BR020058

$$$$
BR020059
  SciTegic05062102053D

 52 55  0  0  1  0            999 V2000
   -4.8455   -3.9998    0.1553 C   0  0
    7.8389   -3.0002    2.7373 C   0  0
    6.2040   -4.2697    1.4913 C   0  0
   -3.8354   -3.0421    0.2458 C   0  0
   -4.7700   -5.1671    0.9152 C   0  0
    8.6918   -4.1038    2.7427 C   0  0
    7.0570   -5.3734    1.4966 C   0  0
   -2.6742   -4.4191    1.8560 C   0  0
    6.1841   -0.6502    2.1240 C   0  0
    6.5949   -3.0832    2.1117 C   0  0
   -2.7497   -3.2518    1.0961 C   0  0
   -3.6843   -5.3768    1.7655 C   0  0
    8.3009   -5.2904    2.1223 C   0  0
    5.7177   -1.9480    2.1059 C   0  0
    3.7891   -0.9041    2.0758 C   0  0
    0.7762   -1.7157    0.9885 C   0  0
    0.8774   -0.6507   -0.0786 C   0  0
    0.9392   -1.3024   -1.4536 C   0  0
   -0.2123   -2.2833   -1.6690 C   0  0
   -0.2338   -3.3604   -0.5828 C   0  0
   -0.2870   -2.7868    0.8375 C   0  0  2  0  0  0
   -1.6568   -2.2164    1.1932 C   0  0  2  0  0  0
    4.3446   -2.0956    2.0787 N   0  0
    1.5406   -1.7097    2.0315 N   0  0
    2.4040   -0.6778    2.0515 N   0  0
   -3.6082   -6.5644    2.5398 N   0  3
   -4.5281   -7.4126    2.4445 O   0  5
   -2.6229   -6.7337    3.2982 O   0  0
   -1.6160   -1.7261    2.5307 O   0  0
    4.8585    0.4378    2.1044 S   0  0
    9.3520   -6.6531    2.1294 Cl  0  0
   -5.6912   -3.8362   -0.5063 H   0  0
    8.1592   -2.0825    3.2255 H   0  0
    5.2374   -4.3501    0.9995 H   0  0
   -3.9018   -2.1358   -0.3501 H   0  0
   -5.5643   -5.9051    0.8352 H   0  0
    9.6582   -4.0249    3.2339 H   0  0
    6.7384   -6.2918    1.0104 H   0  0
   -1.8253   -4.5781    2.5176 H   0  0
    7.2039   -0.2910    2.1436 H   0  0
    0.0018    0.0023    0.0001 H   0  0
    1.7689   -0.0374    0.0895 H   0  0
    0.9150   -0.5290   -2.2295 H   0  0
    1.8912   -1.8372   -1.5623 H   0  0
   -1.1648   -1.7412   -1.6828 H   0  0
   -0.1051   -2.7597   -2.6503 H   0  0
   -1.0814   -4.0352   -0.7505 H   0  0
    0.6752   -3.9684   -0.6827 H   0  0
   -0.0698   -3.6012    1.5403 H   0  0
   -1.8603   -1.3625    0.5381 H   0  0
    2.0748    0.2814    2.0514 H   0  0
   -0.9069   -1.0653    2.5612 H   0  0
  1  4  1  0
  1  5  2  0
  2  6  2  0
  2 10  1  0
  3  7  1  0
  3 10  2  0
  4 11  2  0
  5 12  1  0
  6 13  1  0
  7 13  2  0
  8 11  1  0
  8 12  2  0
  9 14  2  0
  9 30  1  0
 10 14  1  0
 11 22  1  0
 12 26  1  0
 13 31  1  0
 14 23  1  0
 15 23  2  0
 15 25  1  0
 15 30  1  0
 16 17  1  0
 16 21  1  0
 16 24  2  0
 17 18  1  0
 18 19  1  0
 19 20  1  0
 20 21  1  0
 21 22  1  0
 22 29  1  0
 24 25  1  0
 26 27  1  0
 26 28  2  0
  1 32  1  0
  2 33  1  0
  3 34  1  0
  4 35  1  0
  5 36  1  0
  6 37  1  0
  7 38  1  0
  8 39  1  0
  9 40  1  0
 17 41  1  0
 17 42  1  0
 18 43  1  0
 18 44  1  0
 19 45  1  0
 19 46  1  0
 20 47  1  0
 20 48  1  0
 21 49  1  0
 22 50  1  0
 25 51  1  0
 29 52  1  0
M  CHG  2  26   1  27  -1
M  END
> <Name>
BR020059

$$$$
BR020060
  SciTegic05062102053D

 52 55  0  0  1  0            999 V2000
   -4.8455   -3.9998    0.1553 C   0  0
    6.5141   -5.4749    3.7357 C   0  0
    6.1084   -4.4554    1.5833 C   0  0
   -3.8354   -3.0421    0.2458 C   0  0
   -4.7700   -5.1671    0.9152 C   0  0
    7.8516   -5.6699    3.3914 C   0  0
    7.4460   -4.6503    1.2389 C   0  0
   -2.6742   -4.4191    1.8560 C   0  0
    3.5917   -5.5088    4.0447 C   0  0
    5.6425   -4.8678    2.8317 C   0  0
   -2.7497   -3.2518    1.0961 C   0  0
   -3.6843   -5.3768    1.7655 C   0  0
    8.3176   -5.2576    2.1430 C   0  0
    4.2669   -4.6670    3.1859 C   0  0
    2.3182   -3.6608    3.1696 C   0  0
    0.7762   -1.7157    0.9885 C   0  0
    0.8774   -0.6507   -0.0786 C   0  0
    0.9392   -1.3024   -1.4536 C   0  0
   -0.2123   -2.2833   -1.6690 C   0  0
   -0.2338   -3.3604   -0.5828 C   0  0
   -0.2870   -2.7868    0.8375 C   0  0  2  0  0  0
   -1.6568   -2.2164    1.1932 C   0  0  2  0  0  0
    3.5381   -3.6070    2.6827 N   0  0
    1.5406   -1.7097    2.0315 N   0  0
    1.3053   -2.7368    2.8686 N   0  0
   -3.6082   -6.5644    2.5398 N   0  3
   -4.5281   -7.4126    2.4445 O   0  5
   -2.6229   -6.7337    3.2982 O   0  0
   -1.6160   -1.7261    2.5307 O   0  0
    1.9787   -4.9594    4.2390 S   0  0
    9.9674   -5.4987    1.7166 Cl  0  0
   -5.6912   -3.8362   -0.5063 H   0  0
    6.1671   -5.8022    4.7133 H   0  0
    5.4413   -3.9807    0.8676 H   0  0
   -3.9018   -2.1358   -0.3501 H   0  0
   -5.5643   -5.9051    0.8352 H   0  0
    8.5195   -6.1443    4.1058 H   0  0
    7.7947   -4.3252    0.2621 H   0  0
   -1.8253   -4.5781    2.5176 H   0  0
    3.9491   -6.3911    4.5579 H   0  0
    0.0018    0.0023    0.0001 H   0  0
    1.7689   -0.0374    0.0895 H   0  0
    0.9150   -0.5290   -2.2295 H   0  0
    1.8912   -1.8372   -1.5623 H   0  0
   -1.1648   -1.7412   -1.6828 H   0  0
   -0.1051   -2.7597   -2.6503 H   0  0
   -1.0814   -4.0352   -0.7505 H   0  0
    0.6752   -3.9684   -0.6827 H   0  0
   -0.0698   -3.6012    1.5403 H   0  0
   -1.8603   -1.3625    0.5381 H   0  0
    0.3953   -2.8663    3.2968 H   0  0
   -0.9069   -1.0653    2.5612 H   0  0
  1  4  1  0
  1  5  2  0
  2  6  2  0
  2 10  1  0
  3  7  1  0
  3 10  2  0
  4 11  2  0
  5 12  1  0
  6 13  1  0
  7 13  2  0
  8 11  1  0
  8 12  2  0
  9 14  2  0
  9 30  1  0
 10 14  1  0
 11 22  1  0
 12 26  1  0
 13 31  1  0
 14 23  1  0
 15 23  2  0
 15 25  1  0
 15 30  1  0
 16 17  1  0
 16 21  1  0
 16 24  2  0
 17 18  1  0
 18 19  1  0
 19 20  1  0
 20 21  1  0
 21 22  1  0
 22 29  1  0
 24 25  1  0
 26 27  1  0
 26 28  2  0
  1 32  1  0
  2 33  1  0
  3 34  1  0
  4 35  1  0
  5 36  1  0
  6 37  1  0
  7 38  1  0
  8 39  1  0
  9 40  1  0
 17 41  1  0
 17 42  1  0
 18 43  1  0
 18 44  1  0
 19 45  1  0
 19 46  1  0
 20 47  1  0
 20 48  1  0
 21 49  1  0
 22 50  1  0
 25 51  1  0
 29 52  1  0
M  CHG  2  26   1  27  -1
M  END
> <Name>
BR020060

$$$$
BR020061
  SciTegic05062102053D

 56 59  0  0  1  0            999 V2000
   -0.1363   -1.0688   -7.4669 C   0  0
    3.9742   -7.9120   -0.2728 C   0  0
    4.1511   -6.1731   -1.9407 C   0  0
    0.0598   -1.6913   -6.2342 C   0  0
   -1.0410   -0.0130   -7.5790 C   0  0
    4.8348   -8.7162   -1.0200 C   0  0
    5.0117   -6.9773   -2.6879 C   0  0
   -1.5537   -0.2025   -5.2256 C   0  0
    2.6703   -5.8851    1.4097 C   0  0
    3.6323   -6.6405   -0.7332 C   0  0
   -0.6489   -1.2582   -5.1136 C   0  0
   -1.7498    0.4201   -6.4584 C   0  0
    5.3536   -8.2489   -2.2275 C   0  0
    2.7468   -5.8131    0.0345 C   0  0
    1.2222   -4.2707    0.3611 C   0  0
    0.2649   -1.6144   -1.3550 C   0  0
    0.7827   -0.7258   -0.2469 C   0  0
    2.0429   -0.0129   -0.7212 C   0  0
    1.8139    0.7168   -2.0450 C   0  0
    1.3070   -0.2362   -3.1300 C   0  0
    0.0198   -0.9541   -2.7036 C   0  0  1  0  0  0
    6.5015  -10.3221   -2.4276 C   0  0
   -0.4374   -1.9322   -3.7805 C   0  0  1  0  0  0
    1.9169   -4.8882   -0.5685 N   0  0
    0.0221   -2.8687   -1.1557 N   0  0
    0.2767   -3.2654    0.1047 N   0  0
   -2.6698    1.4955   -6.5723 N   0  3
   -2.8304    2.0425   -7.6902 O   0  5
   -3.2974    1.8694   -5.5521 O   0  0
   -1.6694   -2.5191   -3.3698 O   0  0
    6.1935   -9.0333   -2.9567 O   0  0
    1.5170   -4.7520    1.9818 S   0  0
    0.4161   -1.4056   -8.3393 H   0  0
    3.5782   -8.2906    0.6666 H   0  0
    3.8939   -5.1845   -2.3135 H   0  0
    0.7662   -2.5134   -6.1558 H   0  0
   -1.1841    0.4634   -8.5457 H   0  0
    5.0978   -9.7059   -0.6566 H   0  0
    5.4117   -6.6075   -3.6281 H   0  0
   -2.1042    0.1315   -4.3487 H   0  0
    3.2168   -6.5219    2.0919 H   0  0
    0.0193    0.0026    0.0339 H   0  0
    0.9969   -1.3493    0.6237 H   0  0
    2.3611    0.7117    0.0381 H   0  0
    2.8556   -0.7381   -0.8355 H   0  0
    1.0806    1.5189   -1.8953 H   0  0
    2.7445    1.1984   -2.3698 H   0  0
    1.1031    0.3448   -4.0313 H   0  0
    2.0819   -0.9612   -3.3759 H   0  0
   -0.7563   -0.1829   -2.5914 H   0  0
    7.1805  -10.8430   -3.1071 H   0  0
    5.5798  -10.8964   -2.3053 H   0  0
    6.9848  -10.2009   -1.4553 H   0  0
    0.2998   -2.7387   -3.8566 H   0  0
   -0.2075   -2.8502    0.8931 H   0  0
   -1.5018   -2.9427   -2.5137 H   0  0
  1  4  1  0
  1  5  2  0
  2  6  2  0
  2 10  1  0
  3  7  1  0
  3 10  2  0
  4 11  2  0
  5 12  1  0
  6 13  1  0
  7 13  2  0
  8 11  1  0
  8 12  2  0
  9 14  2  0
  9 32  1  0
 10 14  1  0
 11 23  1  0
 12 27  1  0
 13 31  1  0
 14 24  1  0
 15 24  2  0
 15 26  1  0
 15 32  1  0
 16 17  1  0
 16 21  1  0
 16 25  2  0
 17 18  1  0
 18 19  1  0
 19 20  1  0
 20 21  1  0
 21 23  1  0
 22 31  1  0
 23 30  1  0
 25 26  1  0
 27 28  1  0
 27 29  2  0
  1 33  1  0
  2 34  1  0
  3 35  1  0
  4 36  1  0
  5 37  1  0
  6 38  1  0
  7 39  1  0
  8 40  1  0
  9 41  1  0
 17 42  1  0
 17 43  1  0
 18 44  1  0
 18 45  1  0
 19 46  1  0
 19 47  1  0
 20 48  1  0
 20 49  1  0
 21 50  1  0
 22 51  1  0
 22 52  1  0
 22 53  1  0
 23 54  1  0
 26 55  1  0
 30 56  1  0
M  CHG  2  27   1  28  -1
M  END
> <Name>
BR020061

$$$$
BR020062
  SciTegic05062102053D

 56 59  0  0  1  0            999 V2000
   -4.7835   -2.8223    2.9533 C   0  0
    4.0566   -7.3439   -3.9368 C   0  0
    4.6030   -5.7668   -2.1900 C   0  0
   -3.8274   -2.1520    2.1904 C   0  0
   -5.1174   -4.1423    2.6503 C   0  0
    5.4036   -7.6890   -4.0466 C   0  0
    5.9501   -6.1119   -2.2998 C   0  0
   -3.5392   -4.1215    0.8211 C   0  0
    1.2525   -6.9166   -3.1662 C   0  0
    3.6563   -6.3828   -3.0085 C   0  0
   -3.2053   -2.8015    1.1242 C   0  0
   -4.4952   -4.7919    1.5841 C   0  0
    6.3504   -7.0730   -3.2281 C   0  0
    2.2711   -6.0271   -2.8955 C   0  0
    0.5658   -4.7119   -2.4803 C   0  0
    0.1597   -2.0395   -0.5799 C   0  0
    0.7758   -0.7722   -0.0383 C   0  0
    1.3491   -1.0255    1.3490 C   0  0
    0.3148   -1.6525    2.2824 C   0  0
   -0.2368   -2.9560    1.7020 C   0  0
   -0.8251   -2.7938    0.2955 C   0  0  1  0  0  0
    8.0049   -8.3997   -4.3043 C   0  0
   -2.1718   -2.0761    0.2985 C   0  0  1  0  0  0
    1.8793   -4.7623   -2.5024 N   0  0
    0.4447   -2.4316   -1.7788 N   0  0
   -0.1758   -3.5741   -2.1257 N   0  0
   -4.8343   -6.1359    1.2765 N   0  3
   -5.6961   -6.7211    1.9761 O   0  5
   -4.2631   -6.7018    0.3131 O   0  0
   -2.6447   -1.9886   -1.0429 O   0  0
    7.6648   -7.4096   -3.3349 O   0  0
   -0.2616   -6.1496   -2.9202 S   0  0
   -5.2675   -2.3167    3.7839 H   0  0
    3.3307   -7.8332   -4.5819 H   0  0
    4.3070   -5.0154   -1.4618 H   0  0
   -3.5736   -1.1236    2.4330 H   0  0
   -5.8641   -4.6531    3.2532 H   0  0
    5.7100   -8.4384   -4.7714 H   0  0
    6.6826   -5.6277   -1.6597 H   0  0
   -3.0512   -4.6238   -0.0115 H   0  0
    1.3132   -7.9487   -3.4833 H   0  0
    1.5630   -0.4219   -0.7143 H   0  0
    0.0000    0.0000    0.0001 H   0  0
    2.2150   -1.6948    1.2707 H   0  0
    1.7091   -0.0832    1.7769 H   0  0
    0.7785   -1.8557    3.2546 H   0  0
   -0.5016   -0.9438    2.4632 H   0  0
    0.5819   -3.6865    1.6580 H   0  0
   -0.9899   -3.3718    2.3816 H   0  0
   -0.9783   -3.7948   -0.1264 H   0  0
    9.0835   -8.5739   -4.2854 H   0  0
    7.6972   -8.0602   -5.2965 H   0  0
    7.4838   -9.3288   -4.0614 H   0  0
   -2.0224   -1.0531    0.6601 H   0  0
   -1.1878   -3.6377   -2.1402 H   0  0
   -3.4795   -1.4962   -1.0101 H   0  0
  1  4  1  0
  1  5  2  0
  2  6  2  0
  2 10  1  0
  3  7  1  0
  3 10  2  0
  4 11  2  0
  5 12  1  0
  6 13  1  0
  7 13  2  0
  8 11  1  0
  8 12  2  0
  9 14  2  0
  9 32  1  0
 10 14  1  0
 11 23  1  0
 12 27  1  0
 13 31  1  0
 14 24  1  0
 15 24  2  0
 15 26  1  0
 15 32  1  0
 16 17  1  0
 16 21  1  0
 16 25  2  0
 17 18  1  0
 18 19  1  0
 19 20  1  0
 20 21  1  0
 21 23  1  0
 22 31  1  0
 23 30  1  0
 25 26  1  0
 27 28  1  0
 27 29  2  0
  1 33  1  0
  2 34  1  0
  3 35  1  0
  4 36  1  0
  5 37  1  0
  6 38  1  0
  7 39  1  0
  8 40  1  0
  9 41  1  0
 17 42  1  0
 17 43  1  0
 18 44  1  0
 18 45  1  0
 19 46  1  0
 19 47  1  0
 20 48  1  0
 20 49  1  0
 21 50  1  0
 22 51  1  0
 22 52  1  0
 22 53  1  0
 23 54  1  0
 26 55  1  0
 30 56  1  0
M  CHG  2  27   1  28  -1
M  END
> <Name>
BR020062

$$$$
BR020063
  SciTegic05062102053D

 56 59  0  0  1  0            999 V2000
   -2.0882    0.1613    4.1234 C   0  0
    0.3275    2.6579    6.3326 C   0  0
    1.0486    0.5031    7.1535 C   0  0
   -2.0444   -0.3399    2.8225 C   0  0
   -1.7910   -0.6716    5.2022 C   0  0
   -0.4049    2.8586    7.5026 C   0  0
    0.3163    0.7038    8.3236 C   0  0
   -1.4062   -2.5070    3.6790 C   0  0
    2.8256    2.1160    4.5625 C   0  0
    1.0542    1.4801    6.1580 C   0  0
   -1.7034   -1.6741    2.6003 C   0  0
   -1.4501   -2.0057    4.9800 C   0  0
   -0.4104    1.8816    8.4981 C   0  0
    1.8071    1.2728    4.9545 C   0  0
    2.3829    0.2540    3.0997 C   0  0
    0.7762   -1.7157    0.9885 C   0  0
    0.8774   -0.6507   -0.0786 C   0  0
    0.9392   -1.3024   -1.4536 C   0  0
   -0.2123   -2.2833   -1.6690 C   0  0
   -0.2338   -3.3604   -0.5828 C   0  0
   -0.2870   -2.7868    0.8375 C   0  0  2  0  0  0
   -1.0861    1.0374   10.6163 C   0  0
   -1.6568   -2.2164    1.1932 C   0  0  1  0  0  0
    1.5515    0.2048    4.1168 N   0  0
    1.5406   -1.7097    2.0315 N   0  0
    2.4050   -0.6786    2.0508 N   0  0
   -1.1464   -2.8531    6.0780 N   0  3
   -1.1906   -2.3820    7.2402 O   0  5
   -0.8424   -4.0502    5.8563 O   0  0
   -2.6270   -3.2536    1.0759 O   0  0
   -1.1247    2.0772    9.6401 O   0  0
    3.4991    1.5575    3.0874 S   0  0
   -2.3531    1.2004    4.2964 H   0  0
    0.3219    3.4290    5.5658 H   0  0
    1.6095   -0.4206    7.0323 H   0  0
   -2.2778    0.3157    1.9879 H   0  0
   -1.8289   -0.2679    6.2109 H   0  0
   -0.9691    3.7779    7.6334 H   0  0
    0.3156   -0.0616    9.0949 H   0  0
   -1.1410   -3.5469    3.5005 H   0  0
    3.2033    3.0040    5.0505 H   0  0
    0.0018    0.0023    0.0001 H   0  0
    1.7689   -0.0374    0.0895 H   0  0
    0.9150   -0.5290   -2.2295 H   0  0
    1.8912   -1.8372   -1.5623 H   0  0
   -1.1648   -1.7412   -1.6828 H   0  0
   -0.1051   -2.7597   -2.6503 H   0  0
   -1.0814   -4.0352   -0.7505 H   0  0
    0.6752   -3.9684   -0.6827 H   0  0
   -0.0698   -3.6012    1.5403 H   0  0
   -1.6974    1.3212   11.4764 H   0  0
   -0.0528    0.8690   10.9299 H   0  0
   -1.4849    0.1208   10.1752 H   0  0
   -1.9146   -1.4431    0.4616 H   0  0
    3.0869   -0.5520    1.3109 H   0  0
   -2.5730   -3.5806    0.1645 H   0  0
  1  4  1  0
  1  5  2  0
  2  6  2  0
  2 10  1  0
  3  7  1  0
  3 10  2  0
  4 11  2  0
  5 12  1  0
  6 13  1  0
  7 13  2  0
  8 11  1  0
  8 12  2  0
  9 14  2  0
  9 32  1  0
 10 14  1  0
 11 23  1  0
 12 27  1  0
 13 31  1  0
 14 24  1  0
 15 24  2  0
 15 26  1  0
 15 32  1  0
 16 17  1  0
 16 21  1  0
 16 25  2  0
 17 18  1  0
 18 19  1  0
 19 20  1  0
 20 21  1  0
 21 23  1  0
 22 31  1  0
 23 30  1  0
 25 26  1  0
 27 28  1  0
 27 29  2  0
  1 33  1  0
  2 34  1  0
  3 35  1  0
  4 36  1  0
  5 37  1  0
  6 38  1  0
  7 39  1  0
  8 40  1  0
  9 41  1  0
 17 42  1  0
 17 43  1  0
 18 44  1  0
 18 45  1  0
 19 46  1  0
 19 47  1  0
 20 48  1  0
 20 49  1  0
 21 50  1  0
 22 51  1  0
 22 52  1  0
 22 53  1  0
 23 54  1  0
 26 55  1  0
 30 56  1  0
M  CHG  2  27   1  28  -1
M  END
> <Name>
BR020063

$$$$
BR020064
  SciTegic05062102053D

 56 59  0  0  1  0            999 V2000
   -1.4632    0.1721    4.1400 C   0  0
    6.5108   -5.4786    3.7381 C   0  0
    6.1050   -4.4608    1.5848 C   0  0
   -1.4194   -0.3295    2.8392 C   0  0
   -1.7910   -0.6709    5.2019 C   0  0
    7.8478   -5.6756    3.3931 C   0  0
    7.4421   -4.6578    1.2398 C   0  0
   -2.0312   -2.5171    3.6622 C   0  0
    3.5879   -5.5093    4.0475 C   0  0
    5.6393   -4.8712    2.8340 C   0  0
   -1.7034   -1.6741    2.6003 C   0  0
   -2.0750   -2.0154    4.9630 C   0  0
    8.3135   -5.2652    2.1440 C   0  0
    4.2639   -4.6688    3.1880 C   0  0
    2.3162   -3.6608    3.1710 C   0  0
    0.7762   -1.7157    0.9885 C   0  0
    0.8774   -0.6507   -0.0786 C   0  0
    0.9392   -1.3024   -1.4536 C   0  0
   -0.2123   -2.2833   -1.6690 C   0  0
   -0.2338   -3.3604   -0.5828 C   0  0
   -0.2870   -2.7868    0.8375 C   0  0  2  0  0  0
   10.4543   -6.0838    2.7786 C   0  0
   -1.6568   -2.2164    1.1932 C   0  0  1  0  0  0
    3.5362   -3.6085    2.6841 N   0  0
    1.5406   -1.7097    2.0315 N   0  0
    1.3043   -2.7359    2.8693 N   0  0
   -2.4074   -2.8736    6.0441 N   0  3
   -2.4401   -2.4025    7.2068 O   0  5
   -2.6599   -4.0798    5.8076 O   0  0
   -2.6270   -3.2536    1.0759 O   0  0
    9.6182   -5.4571    1.8071 O   0  0
    1.9755   -4.9582    4.2413 S   0  0
   -1.2414    1.2189    4.3260 H   0  0
    6.1629   -5.8039    4.7158 H   0  0
    5.4383   -3.9864    0.8687 H   0  0
   -1.1636    0.3342    2.0177 H   0  0
   -1.8213   -0.2669    6.2108 H   0  0
    8.5223   -6.1491    4.1013 H   0  0
    7.7983   -4.3365    0.2648 H   0  0
   -2.2521   -3.5650    3.4707 H   0  0
    3.9444   -6.3916    4.5613 H   0  0
    0.0018    0.0023    0.0001 H   0  0
    1.7689   -0.0374    0.0895 H   0  0
    0.9150   -0.5290   -2.2295 H   0  0
    1.8912   -1.8372   -1.5623 H   0  0
   -1.1648   -1.7412   -1.6828 H   0  0
   -0.1051   -2.7597   -2.6503 H   0  0
   -1.0814   -4.0352   -0.7505 H   0  0
    0.6752   -3.9684   -0.6827 H   0  0
   -0.0698   -3.6012    1.5403 H   0  0
   11.4685   -6.1760    2.3825 H   0  0
   10.0552   -7.0719    3.0212 H   0  0
   10.4727   -5.4688    3.6815 H   0  0
   -1.9146   -1.4431    0.4616 H   0  0
    0.3941   -2.8643    3.2977 H   0  0
   -2.5730   -3.5806    0.1645 H   0  0
  1  4  1  0
  1  5  2  0
  2  6  2  0
  2 10  1  0
  3  7  1  0
  3 10  2  0
  4 11  2  0
  5 12  1  0
  6 13  1  0
  7 13  2  0
  8 11  1  0
  8 12  2  0
  9 14  2  0
  9 32  1  0
 10 14  1  0
 11 23  1  0
 12 27  1  0
 13 31  1  0
 14 24  1  0
 15 24  2  0
 15 26  1  0
 15 32  1  0
 16 17  1  0
 16 21  1  0
 16 25  2  0
 17 18  1  0
 18 19  1  0
 19 20  1  0
 20 21  1  0
 21 23  1  0
 22 31  1  0
 23 30  1  0
 25 26  1  0
 27 28  1  0
 27 29  2  0
  1 33  1  0
  2 34  1  0
  3 35  1  0
  4 36  1  0
  5 37  1  0
  6 38  1  0
  7 39  1  0
  8 40  1  0
  9 41  1  0
 17 42  1  0
 17 43  1  0
 18 44  1  0
 18 45  1  0
 19 46  1  0
 19 47  1  0
 20 48  1  0
 20 49  1  0
 21 50  1  0
 22 51  1  0
 22 52  1  0
 22 53  1  0
 23 54  1  0
 26 55  1  0
 30 56  1  0
M  CHG  2  27   1  28  -1
M  END
> <Name>
BR020064

$$$$
BR020065
  SciTegic05062102053D

 56 59  0  0  1  0            999 V2000
   -3.5793   -0.5491   -2.8815 C   0  0
   -2.0708    0.8850   -6.4362 C   0  0
   -1.9022   -1.5002   -6.7816 C   0  0
   -3.0459   -0.6756   -1.5989 C   0  0
   -3.8165   -1.6864   -3.6536 C   0  0
   -3.1952    0.9250   -7.2606 C   0  0
   -3.0267   -1.4603   -7.6059 C   0  0
   -2.9867   -3.0767   -1.8604 C   0  0
    0.8818    0.3407   -5.6279 C   0  0
   -1.4242   -0.3276   -6.1967 C   0  0
   -2.7496   -1.9394   -1.0884 C   0  0
   -3.5202   -2.9502   -3.1430 C   0  0
   -3.6732   -0.2477   -7.8454 C   0  0
   -0.2673   -0.3692   -5.3494 C   0  0
    0.9269   -0.9812   -3.6147 C   0  0
    0.1597   -2.0395   -0.5799 C   0  0
    0.7758   -0.7722   -0.0383 C   0  0
    1.3491   -1.0255    1.3490 C   0  0
    0.3148   -1.6525    2.2824 C   0  0
   -0.2368   -2.9560    1.7020 C   0  0
   -0.8251   -2.7938    0.2955 C   0  0  1  0  0  0
   -5.2051   -1.4450   -9.2149 C   0  0
   -2.1718   -2.0761    0.2985 C   0  0  2  0  0  0
   -0.2432   -1.1281   -4.1956 N   0  0
    0.4447   -2.4316   -1.7788 N   0  0
    1.2995   -1.6113   -2.4169 N   0  0
   -3.7629   -4.1078   -3.9285 N   0  3
   -4.2443   -3.9719   -5.0793 O   0  5
   -3.4889   -5.2352   -3.4506 O   0  0
   -3.0865   -2.8212    1.0980 O   0  0
   -4.7705   -0.2091   -8.6497 O   0  0
    2.0458    0.0554   -4.4010 S   0  0
   -3.8106    0.4349   -3.2788 H   0  0
   -1.7104    1.8077   -5.9875 H   0  0
   -1.4092   -2.4533   -6.6051 H   0  0
   -2.8637    0.2156   -1.0044 H   0  0
   -4.2328   -1.5734   -4.6515 H   0  0
   -3.6950    1.8722   -7.4437 H   0  0
   -3.3934   -2.3773   -8.0591 H   0  0
   -2.7538   -4.0602   -1.4578 H   0  0
    1.0946    0.9966   -6.4609 H   0  0
    1.5630   -0.4219   -0.7143 H   0  0
    0.0000    0.0000    0.0001 H   0  0
    2.2150   -1.6948    1.2707 H   0  0
    1.7091   -0.0832    1.7769 H   0  0
    0.7785   -1.8557    3.2546 H   0  0
   -0.5016   -0.9438    2.4632 H   0  0
    0.5819   -3.6865    1.6580 H   0  0
   -0.9899   -3.3718    2.3816 H   0  0
   -0.9783   -3.7948   -0.1264 H   0  0
   -6.0885   -1.2726   -9.8345 H   0  0
   -5.4408   -2.1501   -8.4138 H   0  0
   -4.4031   -1.8544   -9.8337 H   0  0
   -2.0447   -1.0973    0.7733 H   0  0
    2.2276   -1.4323   -2.0496 H   0  0
   -2.6888   -2.8919    1.9797 H   0  0
  1  4  1  0
  1  5  2  0
  2  6  2  0
  2 10  1  0
  3  7  1  0
  3 10  2  0
  4 11  2  0
  5 12  1  0
  6 13  1  0
  7 13  2  0
  8 11  1  0
  8 12  2  0
  9 14  2  0
  9 32  1  0
 10 14  1  0
 11 23  1  0
 12 27  1  0
 13 31  1  0
 14 24  1  0
 15 24  2  0
 15 26  1  0
 15 32  1  0
 16 17  1  0
 16 21  1  0
 16 25  2  0
 17 18  1  0
 18 19  1  0
 19 20  1  0
 20 21  1  0
 21 23  1  0
 22 31  1  0
 23 30  1  0
 25 26  1  0
 27 28  1  0
 27 29  2  0
  1 33  1  0
  2 34  1  0
  3 35  1  0
  4 36  1  0
  5 37  1  0
  6 38  1  0
  7 39  1  0
  8 40  1  0
  9 41  1  0
 17 42  1  0
 17 43  1  0
 18 44  1  0
 18 45  1  0
 19 46  1  0
 19 47  1  0
 20 48  1  0
 20 49  1  0
 21 50  1  0
 22 51  1  0
 22 52  1  0
 22 53  1  0
 23 54  1  0
 26 55  1  0
 30 56  1  0
M  CHG  2  27   1  28  -1
M  END
> <Name>
BR020065

$$$$
BR020066
  SciTegic05062102053D

 56 59  0  0  1  0            999 V2000
   -3.0176   -0.6719   -3.1276 C   0  0
    4.0566   -7.3439   -3.9368 C   0  0
    4.6030   -5.7668   -2.1900 C   0  0
   -2.4842   -0.7980   -1.8450 C   0  0
   -3.8166   -1.6871   -3.6536 C   0  0
    5.4036   -7.6890   -4.0466 C   0  0
    5.9501   -6.1119   -2.2998 C   0  0
   -3.5485   -2.9547   -1.6144 C   0  0
    1.2525   -6.9166   -3.1662 C   0  0
    3.6563   -6.3828   -3.0085 C   0  0
   -2.7496   -1.9394   -1.0884 C   0  0
   -4.0820   -2.8285   -2.8970 C   0  0
    6.3504   -7.0730   -3.2281 C   0  0
    2.2711   -6.0271   -2.8955 C   0  0
    0.5658   -4.7119   -2.4803 C   0  0
    0.1597   -2.0395   -0.5799 C   0  0
    0.7758   -0.7722   -0.0383 C   0  0
    1.3491   -1.0255    1.3490 C   0  0
    0.3148   -1.6525    2.2824 C   0  0
   -0.2368   -2.9560    1.7020 C   0  0
   -0.8251   -2.7938    0.2955 C   0  0  1  0  0  0
    8.0049   -8.3997   -4.3043 C   0  0
   -2.1718   -2.0761    0.2985 C   0  0  2  0  0  0
    1.8793   -4.7623   -2.5024 N   0  0
    0.4447   -2.4316   -1.7788 N   0  0
   -0.1758   -3.5741   -2.1257 N   0  0
   -4.8963   -3.8613   -3.4320 N   0  3
   -5.3673   -3.7275   -4.5874 O   0  5
   -5.1225   -4.8799   -2.7351 O   0  0
   -3.0865   -2.8212    1.0980 O   0  0
    7.6648   -7.4097   -3.3349 O   0  0
   -0.2616   -6.1496   -2.9202 S   0  0
   -2.8115    0.2171   -3.7165 H   0  0
    3.3306   -7.8332   -4.5819 H   0  0
    4.3070   -5.0154   -1.4618 H   0  0
   -1.8624   -0.0026   -1.4431 H   0  0
   -4.2261   -1.5759   -4.6545 H   0  0
    5.7100   -8.4384   -4.7714 H   0  0
    6.6825   -5.6277   -1.6597 H   0  0
   -3.7525   -3.8431   -1.0204 H   0  0
    1.3132   -7.9487   -3.4833 H   0  0
    1.5630   -0.4219   -0.7143 H   0  0
    0.0000    0.0000    0.0001 H   0  0
    2.2150   -1.6948    1.2707 H   0  0
    1.7091   -0.0832    1.7769 H   0  0
    0.7785   -1.8557    3.2546 H   0  0
   -0.5016   -0.9438    2.4632 H   0  0
    0.5819   -3.6865    1.6580 H   0  0
   -0.9899   -3.3718    2.3816 H   0  0
   -0.9783   -3.7948   -0.1264 H   0  0
    9.0835   -8.5739   -4.2854 H   0  0
    7.6972   -8.0602   -5.2965 H   0  0
    7.4838   -9.3288   -4.0614 H   0  0
   -2.0447   -1.0973    0.7733 H   0  0
   -1.1878   -3.6377   -2.1402 H   0  0
   -2.6888   -2.8919    1.9797 H   0  0
  1  4  1  0
  1  5  2  0
  2  6  2  0
  2 10  1  0
  3  7  1  0
  3 10  2  0
  4 11  2  0
  5 12  1  0
  6 13  1  0
  7 13  2  0
  8 11  1  0
  8 12  2  0
  9 14  2  0
  9 32  1  0
 10 14  1  0
 11 23  1  0
 12 27  1  0
 13 31  1  0
 14 24  1  0
 15 24  2  0
 15 26  1  0
 15 32  1  0
 16 17  1  0
 16 21  1  0
 16 25  2  0
 17 18  1  0
 18 19  1  0
 19 20  1  0
 20 21  1  0
 21 23  1  0
 22 31  1  0
 23 30  1  0
 25 26  1  0
 27 28  1  0
 27 29  2  0
  1 33  1  0
  2 34  1  0
  3 35  1  0
  4 36  1  0
  5 37  1  0
  6 38  1  0
  7 39  1  0
  8 40  1  0
  9 41  1  0
 17 42  1  0
 17 43  1  0
 18 44  1  0
 18 45  1  0
 19 46  1  0
 19 47  1  0
 20 48  1  0
 20 49  1  0
 21 50  1  0
 22 51  1  0
 22 52  1  0
 22 53  1  0
 23 54  1  0
 26 55  1  0
 30 56  1  0
M  CHG  2  27   1  28  -1
M  END
> <Name>
BR020066

$$$$
BR020067
  SciTegic05062102053D

 56 59  0  0  1  0            999 V2000
   -4.8455   -3.9998    0.1553 C   0  0
    7.8390   -3.0007    2.7372 C   0  0
    6.2032   -4.2698    1.4919 C   0  0
   -3.8354   -3.0421    0.2458 C   0  0
   -4.7700   -5.1671    0.9152 C   0  0
    8.6912   -4.1049    2.7430 C   0  0
    7.0554   -5.3740    1.4976 C   0  0
   -2.6742   -4.4191    1.8560 C   0  0
    6.1841   -0.6502    2.1240 C   0  0
    6.5949   -3.0832    2.1117 C   0  0
   -2.7497   -3.2518    1.0961 C   0  0
   -3.6843   -5.3768    1.7655 C   0  0
    8.2995   -5.2915    2.1232 C   0  0
    5.7177   -1.9480    2.1059 C   0  0
    3.7891   -0.9041    2.0758 C   0  0
    0.7762   -1.7157    0.9885 C   0  0
    0.8774   -0.6507   -0.0786 C   0  0
    0.9392   -1.3024   -1.4536 C   0  0
   -0.2123   -2.2833   -1.6690 C   0  0
   -0.2338   -3.3604   -0.5828 C   0  0
   -0.2870   -2.7868    0.8375 C   0  0  2  0  0  0
   10.3881   -6.2161    2.7856 C   0  0
   -1.6568   -2.2164    1.1932 C   0  0  2  0  0  0
    4.3446   -2.0956    2.0787 N   0  0
    1.5406   -1.7097    2.0315 N   0  0
    2.4040   -0.6778    2.0515 N   0  0
   -3.6082   -6.5644    2.5398 N   0  3
   -4.5281   -7.4126    2.4445 O   0  5
   -2.6229   -6.7337    3.2982 O   0  0
   -1.6160   -1.7261    2.5307 O   0  0
    9.1310   -6.3691    2.1284 O   0  0
    4.8585    0.4378    2.1044 S   0  0
   -5.6912   -3.8362   -0.5063 H   0  0
    8.1588   -2.0827    3.2245 H   0  0
    5.2364   -4.3502    1.0005 H   0  0
   -3.9018   -2.1358   -0.3501 H   0  0
   -5.5643   -5.9051    0.8352 H   0  0
    9.6592   -4.0351    3.2316 H   0  0
    6.7438   -6.2956    1.0137 H   0  0
   -1.8253   -4.5781    2.5176 H   0  0
    7.2039   -0.2910    2.1436 H   0  0
    0.0018    0.0023    0.0001 H   0  0
    1.7689   -0.0374    0.0895 H   0  0
    0.9150   -0.5290   -2.2295 H   0  0
    1.8912   -1.8372   -1.5623 H   0  0
   -1.1648   -1.7412   -1.6828 H   0  0
   -0.1051   -2.7597   -2.6503 H   0  0
   -1.0814   -4.0352   -0.7505 H   0  0
    0.6752   -3.9684   -0.6827 H   0  0
   -0.0698   -3.6012    1.5403 H   0  0
   10.9525   -7.1491    2.7158 H   0  0
   10.2227   -5.9554    3.8341 H   0  0
   10.9493   -5.4159    2.2974 H   0  0
   -1.8603   -1.3625    0.5381 H   0  0
    2.0748    0.2814    2.0514 H   0  0
   -0.9069   -1.0653    2.5612 H   0  0
  1  4  1  0
  1  5  2  0
  2  6  2  0
  2 10  1  0
  3  7  1  0
  3 10  2  0
  4 11  2  0
  5 12  1  0
  6 13  1  0
  7 13  2  0
  8 11  1  0
  8 12  2  0
  9 14  2  0
  9 32  1  0
 10 14  1  0
 11 23  1  0
 12 27  1  0
 13 31  1  0
 14 24  1  0
 15 24  2  0
 15 26  1  0
 15 32  1  0
 16 17  1  0
 16 21  1  0
 16 25  2  0
 17 18  1  0
 18 19  1  0
 19 20  1  0
 20 21  1  0
 21 23  1  0
 22 31  1  0
 23 30  1  0
 25 26  1  0
 27 28  1  0
 27 29  2  0
  1 33  1  0
  2 34  1  0
  3 35  1  0
  4 36  1  0
  5 37  1  0
  6 38  1  0
  7 39  1  0
  8 40  1  0
  9 41  1  0
 17 42  1  0
 17 43  1  0
 18 44  1  0
 18 45  1  0
 19 46  1  0
 19 47  1  0
 20 48  1  0
 20 49  1  0
 21 50  1  0
 22 51  1  0
 22 52  1  0
 22 53  1  0
 23 54  1  0
 26 55  1  0
 30 56  1  0
M  CHG  2  27   1  28  -1
M  END
> <Name>
BR020067

$$$$
BR020068
  SciTegic05062102053D

 56 59  0  0  1  0            999 V2000
   -4.8455   -3.9998    0.1553 C   0  0
    6.5145   -5.4749    3.7354 C   0  0
    6.1078   -4.4560    1.5828 C   0  0
   -3.8354   -3.0421    0.2458 C   0  0
   -4.7700   -5.1671    0.9152 C   0  0
    7.8517   -5.6704    3.3902 C   0  0
    7.4450   -4.6514    1.2377 C   0  0
   -2.6742   -4.4191    1.8560 C   0  0
    3.5917   -5.5088    4.0447 C   0  0
    5.6425   -4.8678    2.8317 C   0  0
   -2.7497   -3.2518    1.0961 C   0  0
   -3.6843   -5.3768    1.7655 C   0  0
    8.3170   -5.2586    2.1414 C   0  0
    4.2669   -4.6670    3.1859 C   0  0
    2.3182   -3.6608    3.1696 C   0  0
    0.7762   -1.7157    0.9885 C   0  0
    0.8774   -0.6507   -0.0786 C   0  0
    0.9392   -1.3024   -1.4536 C   0  0
   -0.2123   -2.2833   -1.6690 C   0  0
   -0.2338   -3.3604   -0.5828 C   0  0
   -0.2870   -2.7868    0.8375 C   0  0  2  0  0  0
   10.4586   -6.0755    2.7754 C   0  0
   -1.6568   -2.2164    1.1932 C   0  0  2  0  0  0
    3.5381   -3.6070    2.6827 N   0  0
    1.5406   -1.7097    2.0315 N   0  0
    1.3053   -2.7368    2.8686 N   0  0
   -3.6082   -6.5644    2.5398 N   0  3
   -4.5281   -7.4126    2.4445 O   0  5
   -2.6229   -6.7337    3.2982 O   0  0
   -1.6160   -1.7261    2.5307 O   0  0
    9.6219   -5.4489    1.8043 O   0  0
    1.9787   -4.9594    4.2390 S   0  0
   -5.6912   -3.8362   -0.5063 H   0  0
    6.1670   -5.8012    4.7128 H   0  0
    5.4405   -3.9817    0.8671 H   0  0
   -3.9018   -2.1358   -0.3501 H   0  0
   -5.5643   -5.9051    0.8352 H   0  0
    8.5267   -6.1437    4.0980 H   0  0
    7.8009   -4.3290    0.2629 H   0  0
   -1.8253   -4.5781    2.5176 H   0  0
    3.9491   -6.3911    4.5579 H   0  0
    0.0018    0.0023    0.0001 H   0  0
    1.7689   -0.0374    0.0895 H   0  0
    0.9150   -0.5290   -2.2295 H   0  0
    1.8912   -1.8372   -1.5623 H   0  0
   -1.1648   -1.7412   -1.6828 H   0  0
   -0.1051   -2.7597   -2.6503 H   0  0
   -1.0814   -4.0352   -0.7505 H   0  0
    0.6752   -3.9684   -0.6827 H   0  0
   -0.0698   -3.6012    1.5403 H   0  0
   11.4730   -6.1664    2.3792 H   0  0
   10.0605   -7.0642    3.0172 H   0  0
   10.4765   -5.4612    3.6787 H   0  0
   -1.8603   -1.3625    0.5381 H   0  0
    0.3953   -2.8663    3.2968 H   0  0
   -0.9069   -1.0653    2.5612 H   0  0
  1  4  1  0
  1  5  2  0
  2  6  2  0
  2 10  1  0
  3  7  1  0
  3 10  2  0
  4 11  2  0
  5 12  1  0
  6 13  1  0
  7 13  2  0
  8 11  1  0
  8 12  2  0
  9 14  2  0
  9 32  1  0
 10 14  1  0
 11 23  1  0
 12 27  1  0
 13 31  1  0
 14 24  1  0
 15 24  2  0
 15 26  1  0
 15 32  1  0
 16 17  1  0
 16 21  1  0
 16 25  2  0
 17 18  1  0
 18 19  1  0
 19 20  1  0
 20 21  1  0
 21 23  1  0
 22 31  1  0
 23 30  1  0
 25 26  1  0
 27 28  1  0
 27 29  2  0
  1 33  1  0
  2 34  1  0
  3 35  1  0
  4 36  1  0
  5 37  1  0
  6 38  1  0
  7 39  1  0
  8 40  1  0
  9 41  1  0
 17 42  1  0
 17 43  1  0
 18 44  1  0
 18 45  1  0
 19 46  1  0
 19 47  1  0
 20 48  1  0
 20 49  1  0
 21 50  1  0
 22 51  1  0
 22 52  1  0
 22 53  1  0
 23 54  1  0
 26 55  1  0
 30 56  1  0
M  CHG  2  27   1  28  -1
M  END
> <Name>
BR020068

$$$$
BR020069
  SciTegic05062102053D

 45 47  0  0  0  0            999 V2000
    8.3354    2.9076    0.3806 C   0  0
    8.5498    1.7177    1.0761 C   0  0
    7.0354    3.3641    0.1635 C   0  0
    7.4641    0.9843    1.5546 C   0  0
    5.9497    2.6306    0.6420 C   0  0
    0.2272    1.5091   -4.6037 C   0  0
   -0.2600    2.0865   -5.7763 C   0  0
   -1.7038    2.3224   -3.4008 C   0  0
    5.1213   -0.0939    2.9641 C   0  0
    6.1640    1.4407    1.3375 C   0  0
   -0.4947    1.6270   -3.4160 C   0  0
   -1.4691    2.7819   -5.7611 C   0  0
   -2.1910    2.8998   -4.5734 C   0  0
    5.0472    0.6865    1.8293 C   0  0
    2.9869   -0.0650    1.8478 C   0  0
    0.0188    1.0147   -2.1782 C   0  0
   -0.7283    0.7291   -1.1025 C   0  0
   -0.1042    0.0793    0.0887 C   0  0
   -1.0198   -0.8134    0.8988 C   0  0
   -4.0487    3.6523   -3.2932 C   0  0
    3.8242    0.7040    1.1877 N   0  0
    1.1410    0.3174    0.3834 N   0  0
    1.6499   -0.2808    1.4758 N   0  0
   -1.9338    3.3411   -6.9130 O   0  0
   -3.3725    3.5775   -4.5468 O   0  0
    3.6033   -0.8392    3.2498 S   0  0
    9.1807    3.4794    0.0088 H   0  0
    9.5620    1.3628    1.2463 H   0  0
    6.8688    4.2912   -0.3770 H   0  0
    7.6476    0.0585    2.0951 H   0  0
    4.9423    3.0001    0.4645 H   0  0
    1.1706    0.9692   -4.6313 H   0  0
    0.3073    1.9911   -6.6981 H   0  0
   -2.2735    2.4188   -2.4791 H   0  0
    5.9607   -0.2600    3.6253 H   0  0
    1.0789    0.7709   -2.1855 H   0  0
   -1.7965    0.9087   -1.0602 H   0  0
   -0.9915   -1.8447    0.5355 H   0  0
   -0.7031   -0.8140    1.9458 H   0  0
   -2.0487   -0.4501    0.8238 H   0  0
   -4.9754    4.2191   -3.4115 H   0  0
   -3.4026    4.1391   -2.5583 H   0  0
   -4.2837    2.6403   -2.9552 H   0  0
    1.0928   -0.8938    2.0579 H   0  0
   -1.3174    3.1685   -7.6419 H   0  0
  1  2  2  0
  1  3  1  0
  2  4  1  0
  3  5  2  0
  4 10  2  0
  5 10  1  0
  6  7  2  0
  6 11  1  0
  7 12  1  0
  8 11  2  0
  8 13  1  0
  9 14  2  0
  9 26  1  0
 10 14  1  0
 11 16  1  0
 12 13  2  0
 12 24  1  0
 13 25  1  0
 14 21  1  0
 15 21  2  0
 15 23  1  0
 15 26  1  0
 16 17  2  0
 17 18  1  0
 18 19  1  0
 18 22  2  0
 20 25  1  0
 22 23  1  0
  1 27  1  0
  2 28  1  0
  3 29  1  0
  4 30  1  0
  5 31  1  0
  6 32  1  0
  7 33  1  0
  8 34  1  0
  9 35  1  0
 16 36  1  0
 17 37  1  0
 19 38  1  0
 19 39  1  0
 19 40  1  0
 20 41  1  0
 20 42  1  0
 20 43  1  0
 23 44  1  0
 24 45  1  0
M  END
> <Name>
BR020069

$$$$
BR020070
  SciTegic05062102053D

 45 47  0  0  0  0            999 V2000
    7.4640    0.9841    1.5547 C   0  0
    5.9499    2.6309    0.6424 C   0  0
    0.2272    1.5091   -4.6037 C   0  0
   -0.2600    2.0865   -5.7763 C   0  0
    8.5499    1.7176    1.0767 C   0  0
    7.0357    3.3645    0.1645 C   0  0
   -1.7038    2.3224   -3.4008 C   0  0
    5.1213   -0.0939    2.9641 C   0  0
    6.1640    1.4407    1.3375 C   0  0
   -0.4947    1.6270   -3.4160 C   0  0
   -1.4691    2.7819   -5.7611 C   0  0
   -2.1910    2.8998   -4.5734 C   0  0
    8.3357    2.9078    0.3816 C   0  0
    5.0472    0.6865    1.8293 C   0  0
    2.9869   -0.0650    1.8478 C   0  0
    0.0188    1.0147   -2.1782 C   0  0
   -0.7283    0.7291   -1.1025 C   0  0
   -0.1042    0.0793    0.0887 C   0  0
   -1.0198   -0.8134    0.8988 C   0  0
   -4.0487    3.6523   -3.2932 C   0  0
    3.8242    0.7040    1.1877 N   0  0
    1.1410    0.3174    0.3834 N   0  0
    1.6499   -0.2808    1.4758 N   0  0
   -1.9338    3.3411   -6.9130 O   0  0
   -3.3725    3.5775   -4.5468 O   0  0
    3.6033   -0.8392    3.2498 S   0  0
    9.6747    3.8130   -0.2096 Cl  0  0
    7.6486    0.0582    2.0949 H   0  0
    4.9424    3.0000    0.4650 H   0  0
    1.1706    0.9692   -4.6313 H   0  0
    0.3073    1.9911   -6.6981 H   0  0
    9.5574    1.3498    1.2533 H   0  0
    6.8536    4.2894   -0.3766 H   0  0
   -2.2735    2.4188   -2.4791 H   0  0
    5.9607   -0.2600    3.6253 H   0  0
    1.0789    0.7709   -2.1855 H   0  0
   -1.7965    0.9087   -1.0602 H   0  0
   -0.9915   -1.8447    0.5355 H   0  0
   -0.7031   -0.8140    1.9458 H   0  0
   -2.0487   -0.4501    0.8238 H   0  0
   -4.9754    4.2191   -3.4115 H   0  0
   -3.4026    4.1391   -2.5583 H   0  0
   -4.2837    2.6403   -2.9552 H   0  0
    1.0928   -0.8938    2.0579 H   0  0
   -1.3174    3.1685   -7.6419 H   0  0
  1  5  2  0
  1  9  1  0
  2  6  1  0
  2  9  2  0
  3  4  2  0
  3 10  1  0
  4 11  1  0
  5 13  1  0
  6 13  2  0
  7 10  2  0
  7 12  1  0
  8 14  2  0
  8 26  1  0
  9 14  1  0
 10 16  1  0
 11 12  2  0
 11 24  1  0
 12 25  1  0
 13 27  1  0
 14 21  1  0
 15 21  2  0
 15 23  1  0
 15 26  1  0
 16 17  2  0
 17 18  1  0
 18 19  1  0
 18 22  2  0
 20 25  1  0
 22 23  1  0
  1 28  1  0
  2 29  1  0
  3 30  1  0
  4 31  1  0
  5 32  1  0
  6 33  1  0
  7 34  1  0
  8 35  1  0
 16 36  1  0
 17 37  1  0
 19 38  1  0
 19 39  1  0
 19 40  1  0
 20 41  1  0
 20 42  1  0
 20 43  1  0
 23 44  1  0
 24 45  1  0
M  END
> <Name>
BR020070

$$$$
BR020071
  SciTegic05062102053D

 49 51  0  0  0  0            999 V2000
    7.4642    0.9845    1.5545 C   0  0
    5.9493    2.6305    0.6418 C   0  0
    0.2272    1.5091   -4.6037 C   0  0
    8.5497    1.7180    1.0755 C   0  0
    7.0348    3.3640    0.1629 C   0  0
   -0.2600    2.0865   -5.7763 C   0  0
   -1.7038    2.3224   -3.4008 C   0  0
    5.1213   -0.0939    2.9641 C   0  0
    6.1640    1.4407    1.3375 C   0  0
   -0.4947    1.6270   -3.4160 C   0  0
    8.3350    2.9077    0.3798 C   0  0
   -1.4691    2.7819   -5.7611 C   0  0
   -2.1910    2.8998   -4.5734 C   0  0
    5.0472    0.6865    1.8293 C   0  0
    2.9869   -0.0650    1.8478 C   0  0
    0.0188    1.0147   -2.1782 C   0  0
   -0.7283    0.7291   -1.1025 C   0  0
   -0.1042    0.0793    0.0887 C   0  0
   -1.0198   -0.8134    0.8988 C   0  0
   10.6960    3.1002    0.1695 C   0  0
   -4.0487    3.6523   -3.2932 C   0  0
    3.8242    0.7040    1.1877 N   0  0
    1.1410    0.3174    0.3834 N   0  0
    1.6499   -0.2808    1.4758 N   0  0
   -1.9338    3.3411   -6.9130 O   0  0
    9.3940    3.6238   -0.0875 O   0  0
   -3.3725    3.5775   -4.5468 O   0  0
    3.6033   -0.8392    3.2498 S   0  0
    7.6480    0.0591    2.0951 H   0  0
    4.9419    2.9992    0.4641 H   0  0
    1.1706    0.9692   -4.6313 H   0  0
    9.5604    1.3581    1.2474 H   0  0
    6.8605    4.2896   -0.3790 H   0  0
    0.3073    1.9911   -6.6981 H   0  0
   -2.2735    2.4188   -2.4791 H   0  0
    5.9607   -0.2600    3.6253 H   0  0
    1.0789    0.7709   -2.1855 H   0  0
   -1.7965    0.9087   -1.0602 H   0  0
   -0.9915   -1.8447    0.5355 H   0  0
   -0.7031   -0.8140    1.9458 H   0  0
   -2.0487   -0.4501    0.8238 H   0  0
   11.4488    3.7679   -0.2566 H   0  0
   10.7835    2.1050   -0.2738 H   0  0
   10.8441    3.0300    1.2497 H   0  0
   -4.9754    4.2191   -3.4115 H   0  0
   -3.4026    4.1391   -2.5583 H   0  0
   -4.2837    2.6403   -2.9552 H   0  0
    1.0928   -0.8938    2.0579 H   0  0
   -1.3174    3.1685   -7.6419 H   0  0
  1  4  2  0
  1  9  1  0
  2  5  1  0
  2  9  2  0
  3  6  2  0
  3 10  1  0
  4 11  1  0
  5 11  2  0
  6 12  1  0
  7 10  2  0
  7 13  1  0
  8 14  2  0
  8 28  1  0
  9 14  1  0
 10 16  1  0
 11 26  1  0
 12 13  2  0
 12 25  1  0
 13 27  1  0
 14 22  1  0
 15 22  2  0
 15 24  1  0
 15 28  1  0
 16 17  2  0
 17 18  1  0
 18 19  1  0
 18 23  2  0
 20 26  1  0
 21 27  1  0
 23 24  1  0
  1 29  1  0
  2 30  1  0
  3 31  1  0
  4 32  1  0
  5 33  1  0
  6 34  1  0
  7 35  1  0
  8 36  1  0
 16 37  1  0
 17 38  1  0
 19 39  1  0
 19 40  1  0
 19 41  1  0
 20 42  1  0
 20 43  1  0
 20 44  1  0
 21 45  1  0
 21 46  1  0
 21 47  1  0
 24 48  1  0
 25 49  1  0
M  END
> <Name>
BR020071

$$$$
BR020072
  SciTegic05062102053D

 35 36  0  0  0  0            999 V2000
    6.0978    1.1999    5.3018 C   0  0
    5.7365    2.4260    5.8600 C   0  0
    5.4886    0.7625    4.1256 C   0  0
    4.7659    3.2147    5.2422 C   0  0
    4.5181    1.5512    3.5078 C   0  0
    3.1586    4.9649    3.5126 C   0  0
    4.1567    2.7773    4.0661 C   0  0
    3.1584    3.5882    3.4306 C   0  0
    1.3720    3.9907    2.2237 C   0  0
   -1.2180    2.5005    0.3637 C   0  0
   -3.0804    1.4123   -0.9714 C   0  0
   -0.7604    0.4609   -0.9459 C   0  0
   -2.1828    0.3597    1.1202 C   0  0
   -1.8258    1.1894   -0.1186 C   0  0
    2.1344    3.0278    2.6922 N   0  0
   -0.1548    2.5358    1.0988 N   0  0
    0.2342    3.7822    1.4286 N   0  0
    1.8283    5.5939    2.6317 S   0  0
    6.8542    0.5861    5.7821 H   0  0
    6.2115    2.7674    6.7751 H   0  0
    5.7711   -0.1916    3.6905 H   0  0
    4.4951    4.1682    5.6898 H   0  0
    4.0526    1.1960    2.5913 H   0  0
    3.8510    5.6186    4.0253 H   0  0
   -1.7394    3.4254    0.0498 H   0  0
   -3.5061    0.4609   -1.3108 H   0  0
   -2.8532    2.0115   -1.8603 H   0  0
   -3.8593    1.9369   -0.4060 H   0  0
   -1.1406   -0.4956   -1.3230 H   0  0
    0.1360    0.2570   -0.3498 H   0  0
   -0.4566    1.0535   -1.8167 H   0  0
   -2.6276   -0.6028    0.8420 H   0  0
   -1.2905    0.1420    1.7188 H   0  0
   -2.8985    0.8874    1.7602 H   0  0
   -0.2883    4.5931    1.1163 H   0  0
  1  2  2  0
  1  3  1  0
  2  4  1  0
  3  5  2  0
  4  7  2  0
  5  7  1  0
  6  8  2  0
  6 18  1  0
  7  8  1  0
  8 15  1  0
  9 15  2  0
  9 17  1  0
  9 18  1  0
 10 14  1  0
 10 16  2  0
 11 14  1  0
 12 14  1  0
 13 14  1  0
 16 17  1  0
  1 19  1  0
  2 20  1  0
  3 21  1  0
  4 22  1  0
  5 23  1  0
  6 24  1  0
 10 25  1  0
 11 26  1  0
 11 27  1  0
 11 28  1  0
 12 29  1  0
 12 30  1  0
 12 31  1  0
 13 32  1  0
 13 33  1  0
 13 34  1  0
 17 35  1  0
M  END
> <Name>
BR020072

$$$$
BR020073
  SciTegic05062102053D

 35 36  0  0  0  0            999 V2000
    4.7658    3.2149    5.2422 C   0  0
    4.5186    1.5514    3.5077 C   0  0
    5.7366    2.4266    5.8599 C   0  0
    5.4895    0.7631    4.1254 C   0  0
    3.1586    4.9649    3.5126 C   0  0
    4.1567    2.7773    4.0661 C   0  0
    6.0985    1.2007    5.3015 C   0  0
    3.1584    3.5882    3.4306 C   0  0
    1.3720    3.9907    2.2237 C   0  0
   -1.2180    2.5005    0.3637 C   0  0
   -3.0804    1.4123   -0.9714 C   0  0
   -0.7604    0.4609   -0.9459 C   0  0
   -2.1828    0.3597    1.1202 C   0  0
   -1.8258    1.1894   -0.1186 C   0  0
    2.1344    3.0278    2.6922 N   0  0
   -0.1548    2.5358    1.0988 N   0  0
    0.2342    3.7822    1.4286 N   0  0
    1.8283    5.5939    2.6317 S   0  0
    7.2954    0.2267    6.0635 Cl  0  0
    4.4954    4.1682    5.6908 H   0  0
    4.0529    1.1965    2.5913 H   0  0
    6.2029    2.7802    6.7760 H   0  0
    5.7605   -0.1904    3.6795 H   0  0
    3.8510    5.6186    4.0253 H   0  0
   -1.7394    3.4254    0.0498 H   0  0
   -3.5061    0.4609   -1.3108 H   0  0
   -2.8532    2.0115   -1.8603 H   0  0
   -3.8593    1.9369   -0.4060 H   0  0
   -1.1406   -0.4956   -1.3230 H   0  0
    0.1360    0.2570   -0.3498 H   0  0
   -0.4566    1.0535   -1.8167 H   0  0
   -2.6276   -0.6028    0.8420 H   0  0
   -1.2905    0.1420    1.7188 H   0  0
   -2.8985    0.8874    1.7602 H   0  0
   -0.2883    4.5931    1.1163 H   0  0
  1  3  2  0
  1  6  1  0
  2  4  1  0
  2  6  2  0
  3  7  1  0
  4  7  2  0
  5  8  2  0
  5 18  1  0
  6  8  1  0
  7 19  1  0
  8 15  1  0
  9 15  2  0
  9 17  1  0
  9 18  1  0
 10 14  1  0
 10 16  2  0
 11 14  1  0
 12 14  1  0
 13 14  1  0
 16 17  1  0
  1 20  1  0
  2 21  1  0
  3 22  1  0
  4 23  1  0
  5 24  1  0
 10 25  1  0
 11 26  1  0
 11 27  1  0
 11 28  1  0
 12 29  1  0
 12 30  1  0
 12 31  1  0
 13 32  1  0
 13 33  1  0
 13 34  1  0
 17 35  1  0
M  END
> <Name>
BR020073

$$$$
BR020074
  SciTegic05062102053D

 39 40  0  0  0  0            999 V2000
    3.9991    4.8564    5.9092 C   0  0
    2.3572    3.1067    6.1915 C   0  0
    4.3277    4.7663    7.2618 C   0  0
    2.6859    3.0165    7.5441 C   0  0
    3.5878    4.4976    3.0211 C   0  0
    3.0138    4.0266    5.3741 C   0  0
    3.6712    3.8463    8.0792 C   0  0
    2.6749    4.1193    3.9832 C   0  0
    1.3720    3.9907    2.2237 C   0  0
   -1.8889    3.2458    1.1285 C   0  0
   -4.2441    2.7085    0.3540 C   0  0
   -3.1685    1.4535    2.2399 C   0  0
   -3.8166    3.8602    2.5402 C   0  0
    5.0082    4.6357    9.8806 C   0  0
   -3.2891    2.8166    1.5487 C   0  0
    1.4037    3.8286    3.5279 N   0  0
   -0.9312    3.3982    1.9837 N   0  0
    0.2342    3.7822    1.4286 N   0  0
    3.9918    3.7579    9.3991 O   0  0
    2.8354    4.4908    1.4799 S   0  0
    4.5200    5.5785    5.2850 H   0  0
    1.5865    2.4531    5.7896 H   0  0
    5.0961    5.4150    7.6734 H   0  0
    2.1700    2.2982    8.1756 H   0  0
    4.6288    4.7671    3.1355 H   0  0
   -1.7362    3.4218    0.0461 H   0  0
   -5.2466    2.3991    0.6717 H   0  0
   -3.8842    1.9737   -0.3750 H   0  0
   -4.3461    3.6693   -0.1637 H   0  0
   -4.1494    1.0897    2.5671 H   0  0
   -2.5180    1.5095    3.1197 H   0  0
   -2.7531    0.6978    1.5630 H   0  0
   -4.8268    3.6097    2.8843 H   0  0
   -3.1776    3.9170    3.4291 H   0  0
   -3.8542    4.8568    2.0868 H   0  0
    5.1658    4.4614   10.9478 H   0  0
    4.7063    5.6723    9.7105 H   0  0
    5.9363    4.4353    9.3400 H   0  0
    0.3125    3.9346    0.4293 H   0  0
  1  3  2  0
  1  6  1  0
  2  4  1  0
  2  6  2  0
  3  7  1  0
  4  7  2  0
  5  8  2  0
  5 20  1  0
  6  8  1  0
  7 19  1  0
  8 16  1  0
  9 16  2  0
  9 18  1  0
  9 20  1  0
 10 15  1  0
 10 17  2  0
 11 15  1  0
 12 15  1  0
 13 15  1  0
 14 19  1  0
 17 18  1  0
  1 21  1  0
  2 22  1  0
  3 23  1  0
  4 24  1  0
  5 25  1  0
 10 26  1  0
 11 27  1  0
 11 28  1  0
 11 29  1  0
 12 30  1  0
 12 31  1  0
 12 32  1  0
 13 33  1  0
 13 34  1  0
 13 35  1  0
 14 36  1  0
 14 37  1  0
 14 38  1  0
 18 39  1  0
M  END
> <Name>
BR020074

$$$$
BR020075
  SciTegic05062102053D

 38 39  0  0  0  0            999 V2000
    7.6023   -4.2757   -2.6785 C   0  0
    8.2041   -3.6788   -1.5708 C   0  0
    6.3384   -3.8577   -3.0953 C   0  0
    7.5421   -2.6639   -0.8798 C   0  0
    5.6764   -2.8429   -2.4043 C   0  0
    6.2680   -0.1916    0.0700 C   0  0
    6.2783   -2.2460   -1.2965 C   0  0
    5.5971   -1.2024   -0.5859 C   0  0
    3.8635   -0.1001    0.1821 C   0  0
    0.3064   -0.1407    0.3037 C   0  0
   -0.2503    0.8363    2.5363 C   0  0
   -2.4778   -1.5541   -2.0201 C   0  0
   -0.0921    1.1201    1.0535 C   0  0
   -0.8180   -1.0539   -0.1629 C   0  0
   -1.3574   -0.6469   -1.5318 C   0  0
    4.2182   -1.1518   -0.5224 N   0  0
    1.5197   -0.5166    0.0306 N   0  0
    2.5327    0.2599    0.4506 N   0  0
    5.1366    0.8721    0.7978 S   0  0
    8.1180   -5.0651   -3.2174 H   0  0
    9.1887   -4.0032   -1.2469 H   0  0
    5.8706   -4.3217   -3.9586 H   0  0
    8.0246   -2.2085   -0.0181 H   0  0
    4.6916   -2.5283   -2.7419 H   0  0
    7.3326   -0.0222    0.1564 H   0  0
   -0.9806    0.0412    2.7166 H   0  0
   -0.5940    1.7275    3.0717 H   0  0
    0.7059    0.5258    2.9683 H   0  0
   -2.1197   -2.5858   -2.0960 H   0  0
   -2.8315   -1.2450   -3.0088 H   0  0
   -3.3275   -1.5464   -1.3308 H   0  0
    0.6389    1.9154    0.8810 H   0  0
   -1.0446    1.4836    0.6532 H   0  0
   -0.4609   -2.0901   -0.1831 H   0  0
   -1.6237   -1.0046    0.5784 H   0  0
   -1.7432    0.3772   -1.4654 H   0  0
   -0.5535   -0.6391   -2.2763 H   0  0
    2.3758    1.0918    1.0051 H   0  0
  1  2  2  0
  1  3  1  0
  2  4  1  0
  3  5  2  0
  4  7  2  0
  5  7  1  0
  6  8  2  0
  6 19  1  0
  7  8  1  0
  8 16  1  0
  9 16  2  0
  9 18  1  0
  9 19  1  0
 10 13  1  0
 10 14  1  0
 10 17  2  0
 11 13  1  0
 12 15  1  0
 14 15  1  0
 17 18  1  0
  1 20  1  0
  2 21  1  0
  3 22  1  0
  4 23  1  0
  5 24  1  0
  6 25  1  0
 11 26  1  0
 11 27  1  0
 11 28  1  0
 12 29  1  0
 12 30  1  0
 12 31  1  0
 13 32  1  0
 13 33  1  0
 14 34  1  0
 14 35  1  0
 15 36  1  0
 15 37  1  0
 18 38  1  0
M  END
> <Name>
BR020075

$$$$
BR020076
  SciTegic05062102053D

 38 39  0  0  0  0            999 V2000
    8.1965   -2.9957    2.8129 C   0  0
    8.2685   -3.5814    1.5491 C   0  0
    6.9925   -2.4540    3.2631 C   0  0
    7.1365   -3.6254    0.7353 C   0  0
    5.8605   -2.4980    2.4493 C   0  0
    4.5525   -4.1356   -0.5688 C   0  0
    5.9325   -3.0837    1.1854 C   0  0
    4.7681   -3.1286    0.3486 C   0  0
    2.8425   -2.4433   -0.4468 C   0  0
    0.3064   -0.1407    0.3037 C   0  0
   -0.2503    0.8363    2.5363 C   0  0
   -2.4778   -1.5541   -2.0201 C   0  0
   -0.0921    1.1201    1.0535 C   0  0
   -0.8180   -1.0539   -0.1629 C   0  0
   -1.3574   -0.6469   -1.5318 C   0  0
    3.7888   -2.1571    0.4196 N   0  0
    1.5197   -0.5166    0.0306 N   0  0
    1.6893   -1.6661   -0.6443 N   0  0
    3.0654   -3.8664   -1.3797 S   0  0
    9.0776   -2.9623    3.4471 H   0  0
    9.2055   -4.0044    1.1989 H   0  0
    6.9364   -1.9992    4.2476 H   0  0
    7.2087   -4.0854   -0.2475 H   0  0
    4.9293   -2.0713    2.8148 H   0  0
    5.1690   -4.9938   -0.7987 H   0  0
   -0.9806    0.0412    2.7166 H   0  0
   -0.5940    1.7275    3.0717 H   0  0
    0.7059    0.5258    2.9683 H   0  0
   -2.1197   -2.5858   -2.0960 H   0  0
   -2.8315   -1.2450   -3.0088 H   0  0
   -3.3275   -1.5464   -1.3308 H   0  0
    0.6389    1.9154    0.8810 H   0  0
   -1.0446    1.4836    0.6532 H   0  0
   -0.4609   -2.0901   -0.1831 H   0  0
   -1.6237   -1.0046    0.5784 H   0  0
   -1.7432    0.3772   -1.4654 H   0  0
   -0.5535   -0.6391   -2.2763 H   0  0
    1.0256   -1.9821   -1.3398 H   0  0
  1  2  2  0
  1  3  1  0
  2  4  1  0
  3  5  2  0
  4  7  2  0
  5  7  1  0
  6  8  2  0
  6 19  1  0
  7  8  1  0
  8 16  1  0
  9 16  2  0
  9 18  1  0
  9 19  1  0
 10 13  1  0
 10 14  1  0
 10 17  2  0
 11 13  1  0
 12 15  1  0
 14 15  1  0
 17 18  1  0
  1 20  1  0
  2 21  1  0
  3 22  1  0
  4 23  1  0
  5 24  1  0
  6 25  1  0
 11 26  1  0
 11 27  1  0
 11 28  1  0
 12 29  1  0
 12 30  1  0
 12 31  1  0
 13 32  1  0
 13 33  1  0
 14 34  1  0
 14 35  1  0
 15 36  1  0
 15 37  1  0
 18 38  1  0
M  END
> <Name>
BR020076

$$$$
BR020077
  SciTegic05062102053D

 38 39  0  0  0  0            999 V2000
    7.5421   -2.6638   -0.8796 C   0  0
    5.6768   -2.8426   -2.4047 C   0  0
    8.2045   -3.6783   -1.5707 C   0  0
    6.3392   -3.8571   -3.0958 C   0  0
    6.2680   -0.1916    0.0700 C   0  0
    6.2783   -2.2460   -1.2965 C   0  0
    7.6030   -4.2749   -2.6789 C   0  0
    5.5971   -1.2024   -0.5859 C   0  0
    3.8635   -0.1001    0.1821 C   0  0
    0.3064   -0.1407    0.3037 C   0  0
   -0.2503    0.8363    2.5363 C   0  0
   -2.4778   -1.5541   -2.0201 C   0  0
   -0.0921    1.1201    1.0535 C   0  0
   -0.8180   -1.0539   -0.1629 C   0  0
   -1.3574   -0.6469   -1.5318 C   0  0
    4.2182   -1.1518   -0.5224 N   0  0
    1.5197   -0.5166    0.0306 N   0  0
    2.5327    0.2599    0.4506 N   0  0
    5.1366    0.8721    0.7978 S   0  0
    8.4189   -5.5275   -3.5316 Cl  0  0
    8.0253   -2.2091   -0.0178 H   0  0
    4.6920   -2.5279   -2.7419 H   0  0
    9.1889   -3.9937   -1.2347 H   0  0
    5.8577   -4.3137   -3.9567 H   0  0
    7.3326   -0.0222    0.1564 H   0  0
   -0.9806    0.0412    2.7166 H   0  0
   -0.5940    1.7275    3.0717 H   0  0
    0.7059    0.5258    2.9683 H   0  0
   -2.1197   -2.5858   -2.0960 H   0  0
   -2.8315   -1.2450   -3.0088 H   0  0
   -3.3275   -1.5464   -1.3308 H   0  0
    0.6389    1.9154    0.8810 H   0  0
   -1.0446    1.4836    0.6532 H   0  0
   -0.4609   -2.0901   -0.1831 H   0  0
   -1.6237   -1.0046    0.5784 H   0  0
   -1.7432    0.3772   -1.4654 H   0  0
   -0.5535   -0.6391   -2.2763 H   0  0
    2.3758    1.0918    1.0051 H   0  0
  1  3  2  0
  1  6  1  0
  2  4  1  0
  2  6  2  0
  3  7  1  0
  4  7  2  0
  5  8  2  0
  5 19  1  0
  6  8  1  0
  7 20  1  0
  8 16  1  0
  9 16  2  0
  9 18  1  0
  9 19  1  0
 10 13  1  0
 10 14  1  0
 10 17  2  0
 11 13  1  0
 12 15  1  0
 14 15  1  0
 17 18  1  0
  1 21  1  0
  2 22  1  0
  3 23  1  0
  4 24  1  0
  5 25  1  0
 11 26  1  0
 11 27  1  0
 11 28  1  0
 12 29  1  0
 12 30  1  0
 12 31  1  0
 13 32  1  0
 13 33  1  0
 14 34  1  0
 14 35  1  0
 15 36  1  0
 15 37  1  0
 18 38  1  0
M  END
> <Name>
BR020077

$$$$
BR020078
  SciTegic05062102053D

 38 39  0  0  0  0            999 V2000
    7.1364   -3.6255    0.7351 C   0  0
    5.8606   -2.4985    2.4495 C   0  0
    8.2684   -3.5820    1.5489 C   0  0
    6.9926   -2.4551    3.2634 C   0  0
    4.5525   -4.1356   -0.5688 C   0  0
    5.9325   -3.0837    1.1854 C   0  0
    8.1965   -2.9968    2.8130 C   0  0
    4.7681   -3.1286    0.3486 C   0  0
    2.8425   -2.4433   -0.4468 C   0  0
    0.3064   -0.1407    0.3037 C   0  0
   -0.2503    0.8363    2.5363 C   0  0
   -2.4778   -1.5541   -2.0201 C   0  0
   -0.0921    1.1201    1.0535 C   0  0
   -0.8180   -1.0539   -0.1629 C   0  0
   -1.3574   -0.6469   -1.5318 C   0  0
    3.7888   -2.1571    0.4196 N   0  0
    1.5197   -0.5166    0.0306 N   0  0
    1.6893   -1.6661   -0.6443 N   0  0
    3.0654   -3.8664   -1.3797 S   0  0
    9.5929   -2.9416    3.8174 Cl  0  0
    7.2096   -4.0855   -0.2478 H   0  0
    4.9293   -2.0718    2.8147 H   0  0
    9.1998   -4.0081    1.1850 H   0  0
    6.9219   -1.9948    4.2455 H   0  0
    5.1690   -4.9938   -0.7987 H   0  0
   -0.9806    0.0412    2.7166 H   0  0
   -0.5940    1.7275    3.0717 H   0  0
    0.7059    0.5258    2.9683 H   0  0
   -2.1197   -2.5858   -2.0960 H   0  0
   -2.8315   -1.2450   -3.0088 H   0  0
   -3.3275   -1.5464   -1.3308 H   0  0
    0.6389    1.9154    0.8810 H   0  0
   -1.0446    1.4836    0.6532 H   0  0
   -0.4609   -2.0901   -0.1831 H   0  0
   -1.6237   -1.0046    0.5784 H   0  0
   -1.7432    0.3772   -1.4654 H   0  0
   -0.5535   -0.6391   -2.2763 H   0  0
    1.0256   -1.9821   -1.3398 H   0  0
  1  3  2  0
  1  6  1  0
  2  4  1  0
  2  6  2  0
  3  7  1  0
  4  7  2  0
  5  8  2  0
  5 19  1  0
  6  8  1  0
  7 20  1  0
  8 16  1  0
  9 16  2  0
  9 18  1  0
  9 19  1  0
 10 13  1  0
 10 14  1  0
 10 17  2  0
 11 13  1  0
 12 15  1  0
 14 15  1  0
 17 18  1  0
  1 21  1  0
  2 22  1  0
  3 23  1  0
  4 24  1  0
  5 25  1  0
 11 26  1  0
 11 27  1  0
 11 28  1  0
 12 29  1  0
 12 30  1  0
 12 31  1  0
 13 32  1  0
 13 33  1  0
 14 34  1  0
 14 35  1  0
 15 36  1  0
 15 37  1  0
 18 38  1  0
M  END
> <Name>
BR020078

$$$$
BR020079
  SciTegic05062102053D

 42 43  0  0  0  0            999 V2000
    8.4416    0.2437   -0.2568 C   0  0
    7.5573    0.6323    1.9577 C   0  0
    9.7147    0.5979    0.1894 C   0  0
    8.8306    0.9865    2.4040 C   0  0
    5.8492   -1.0071   -0.8521 C   0  0
    7.3628    0.2610    0.6273 C   0  0
    9.9093    0.9693    1.5197 C   0  0
    6.0530   -0.1026    0.1689 C   0  0
    3.8604   -0.0683    0.1307 C   0  0
    1.0232    1.4544    1.6476 C   0  0
   -0.6555    1.6176   -0.1974 C   0  0
    0.3094    2.9885    5.1529 C   0  0
   12.2095    1.2752    0.9991 C   0  0
   -0.1871    0.8053    0.9963 C   0  0
    0.7552    2.5255    2.6950 C   0  0
    0.5700    1.9316    4.0891 C   0  0
    4.9137    0.4371    0.7334 N   0  0
    2.2675    1.1859    1.3875 N   0  0
    2.5327    0.2599    0.4506 N   0  0
   11.1516    1.3147    1.9556 O   0  0
    4.1666   -1.1987   -1.1236 S   0  0
    8.3061   -0.0436   -1.2969 H   0  0
    6.7266    0.6513    2.6592 H   0  0
   10.5515    0.5827   -0.5036 H   0  0
    8.9751    1.2755    3.4414 H   0  0
    6.5771   -1.5540   -1.4357 H   0  0
   -0.8850    2.6498    0.0852 H   0  0
   -1.5619    1.1858   -0.6344 H   0  0
    0.1191    1.6396   -0.9700 H   0  0
    1.1479    3.6907    5.1982 H   0  0
    0.1963    2.5321    6.1414 H   0  0
   -0.5949    3.5635    4.9320 H   0  0
   13.1456    1.5732    1.4775 H   0  0
   11.9794    1.9512    0.1717 H   0  0
   12.3062    0.2558    0.6179 H   0  0
    0.0403   -0.2247    0.7065 H   0  0
   -0.9965    0.7478    1.7321 H   0  0
    1.5770    3.2511    2.6924 H   0  0
   -0.1527    3.0652    2.4025 H   0  0
   -0.2834    1.2438    4.0658 H   0  0
    1.4483    1.3432    4.3774 H   0  0
    1.7984   -0.1911   -0.0800 H   0  0
  1  3  2  0
  1  6  1  0
  2  4  1  0
  2  6  2  0
  3  7  1  0
  4  7  2  0
  5  8  2  0
  5 21  1  0
  6  8  1  0
  7 20  1  0
  8 17  1  0
  9 17  2  0
  9 19  1  0
  9 21  1  0
 10 14  1  0
 10 15  1  0
 10 18  2  0
 11 14  1  0
 12 16  1  0
 13 20  1  0
 15 16  1  0
 18 19  1  0
  1 22  1  0
  2 23  1  0
  3 24  1  0
  4 25  1  0
  5 26  1  0
 11 27  1  0
 11 28  1  0
 11 29  1  0
 12 30  1  0
 12 31  1  0
 12 32  1  0
 13 33  1  0
 13 34  1  0
 13 35  1  0
 14 36  1  0
 14 37  1  0
 15 38  1  0
 15 39  1  0
 16 40  1  0
 16 41  1  0
 19 42  1  0
M  END
> <Name>
BR020079

$$$$
BR020080
  SciTegic05062102053D

 42 43  0  0  0  0            999 V2000
    6.3750   -4.9387   -2.3027 C   0  0
    4.6314   -4.5356   -3.9258 C   0  0
    6.9552   -5.8749   -3.1585 C   0  0
    5.2116   -5.4718   -4.7816 C   0  0
    5.3547   -2.5566   -0.9155 C   0  0
    5.2130   -4.2691   -2.6863 C   0  0
    6.3735   -6.1414   -4.3980 C   0  0
    4.6155   -3.3065   -1.8063 C   0  0
    2.9806   -2.1492   -0.9131 C   0  0
   -0.4009   -1.4174   -1.4852 C   0  0
   -1.6304   -1.5053   -3.6600 C   0  0
   -0.7523    1.6402    0.8975 C   0  0
    8.1267   -7.7026   -4.7788 C   0  0
   -1.6945   -1.8176   -2.1759 C   0  0
   -0.2883    0.0225   -1.0058 C   0  0
   -0.8634    0.2074    0.3962 C   0  0
    3.2539   -3.0745   -1.8060 N   0  0
    0.6228   -2.1886   -1.2729 N   0  0
    1.6893   -1.6661   -0.6443 N   0  0
    6.9396   -7.0547   -5.2335 O   0  0
    4.3132   -1.5141   -0.0381 S   0  0
    6.8405   -4.7419   -1.3398 H   0  0
    3.7253   -4.0223   -4.2392 H   0  0
    7.8604   -6.3936   -2.8547 H   0  0
    4.7530   -5.6753   -5.7455 H   0  0
    6.4217   -2.5615   -0.7392 H   0  0
   -1.4173   -0.4466   -3.8381 H   0  0
   -2.5810   -1.7377   -4.1512 H   0  0
   -0.8445   -2.0969   -4.1396 H   0  0
    0.2979    1.9484    0.9244 H   0  0
   -1.1591    1.7357    1.9092 H   0  0
   -1.2865    2.3353    0.2428 H   0  0
    8.4735   -8.4055   -5.5402 H   0  0
    7.9191   -8.2327   -3.8458 H   0  0
    8.8981   -6.9490   -4.6035 H   0  0
   -1.9076   -2.8769   -2.0056 H   0  0
   -2.5229   -1.2594   -1.7264 H   0  0
    0.7621    0.3349   -1.0345 H   0  0
   -0.8335    0.6582   -1.7127 H   0  0
   -1.9229   -0.0740    0.3796 H   0  0
   -0.3655   -0.4601    1.1084 H   0  0
    1.5956   -0.9512    0.0658 H   0  0
  1  3  2  0
  1  6  1  0
  2  4  1  0
  2  6  2  0
  3  7  1  0
  4  7  2  0
  5  8  2  0
  5 21  1  0
  6  8  1  0
  7 20  1  0
  8 17  1  0
  9 17  2  0
  9 19  1  0
  9 21  1  0
 10 14  1  0
 10 15  1  0
 10 18  2  0
 11 14  1  0
 12 16  1  0
 13 20  1  0
 15 16  1  0
 18 19  1  0
  1 22  1  0
  2 23  1  0
  3 24  1  0
  4 25  1  0
  5 26  1  0
 11 27  1  0
 11 28  1  0
 11 29  1  0
 12 30  1  0
 12 31  1  0
 12 32  1  0
 13 33  1  0
 13 34  1  0
 13 35  1  0
 14 36  1  0
 14 37  1  0
 15 38  1  0
 15 39  1  0
 16 40  1  0
 16 41  1  0
 19 42  1  0
M  END
> <Name>
BR020080

$$$$
BR020081
  SciTegic05062102053D

 27 28  0  0  0  0            999 V2000
   -1.1173    2.6906    1.7587 C   0  0
   -0.2520    1.8768    1.0244 C   0  0
   -4.6100    2.5651    3.0369 C   0  0
   -1.9700    0.1860    0.8482 C   0  0
   -4.9682    1.3162    2.5572 C   0  0
   -2.4223    2.2616    2.0475 C   0  0
   -2.8420    0.9954    1.5829 C   0  0
   -3.3285    3.0402    2.7800 C   0  0
   -0.6774    0.6287    0.5708 C   0  0
   -3.8808    5.1311    4.0245 C   0  0
   -3.2111    6.4478    4.3733 C   0  0
   -4.0932    0.5811    1.8583 N   0  3
   -2.9770    4.3176    3.2761 N   0  0
   -2.0676    6.1967    5.1803 O   0  0
    0.3964   -0.3673   -0.3336 Cl  0  0
   -0.7499    3.6571    2.0951 H   0  0
    0.7543    2.2306    0.8138 H   0  0
   -5.3265    3.1531    3.6023 H   0  0
   -2.3049   -0.7870    0.4958 H   0  0
   -5.9418    0.8713    2.7111 H   0  0
   -4.1702    4.5820    4.9261 H   0  0
   -4.7697    5.3067    3.4111 H   0  0
   -3.8982    7.0771    4.9475 H   0  0
   -2.8964    6.9896    3.4755 H   0  0
   -4.3965   -0.3335    1.5227 H   0  0
   -2.0502    4.6382    3.0773 H   0  0
   -1.6712    7.0600    5.3797 H   0  0
  1  2  1  0
  1  6  2  0
  2  9  2  0
  3  5  1  0
  3  8  2  0
  4  7  2  0
  4  9  1  0
  5 12  2  0
  6  7  1  0
  6  8  1  0
  7 12  1  0
  8 13  1  0
  9 15  1  0
 10 11  1  0
 10 13  1  0
 11 14  1  0
  1 16  1  0
  2 17  1  0
  3 18  1  0
  4 19  1  0
  5 20  1  0
 10 21  1  0
 10 22  1  0
 11 23  1  0
 11 24  1  0
 12 25  1  0
 13 26  1  0
 14 27  1  0
M  CHG  1  12   1
M  END
> <Name>
BR020081

$$$$
BR020082
  SciTegic05062102053D

 30 31  0  0  0  0            999 V2000
   -1.1173    2.6906    1.7587 C   0  0
   -0.2520    1.8768    1.0244 C   0  0
   -4.6100    2.5651    3.0369 C   0  0
   -1.9700    0.1860    0.8482 C   0  0
   -4.9682    1.3162    2.5572 C   0  0
   -2.4223    2.2616    2.0475 C   0  0
   -2.8420    0.9954    1.5829 C   0  0
   -3.3285    3.0402    2.7800 C   0  0
   -0.6774    0.6287    0.5708 C   0  0
   -3.2699    6.4686    4.4214 C   0  0
   -3.8808    5.1311    4.0245 C   0  0
   -2.8637    7.3125    3.2193 C   0  0
   -4.0932    0.5811    1.8583 N   0  3
   -2.9770    4.3176    3.2761 N   0  0
   -2.2915    8.5273    3.6856 O   0  0
    0.3964   -0.3673   -0.3336 Cl  0  0
   -0.7499    3.6571    2.0951 H   0  0
    0.7543    2.2306    0.8138 H   0  0
   -5.3265    3.1531    3.6023 H   0  0
   -2.3049   -0.7870    0.4958 H   0  0
   -5.9418    0.8713    2.7111 H   0  0
   -3.9933    7.0327    5.0234 H   0  0
   -2.3972    6.3142    5.0686 H   0  0
   -4.1555    4.5630    4.9187 H   0  0
   -4.7819    5.2740    3.4196 H   0  0
   -2.1205    6.7955    2.6043 H   0  0
   -3.7338    7.5535    2.6003 H   0  0
   -4.3965   -0.3335    1.5227 H   0  0
   -2.0502    4.6382    3.0773 H   0  0
   -2.0443    9.0402    2.8993 H   0  0
  1  2  1  0
  1  6  2  0
  2  9  2  0
  3  5  1  0
  3  8  2  0
  4  7  2  0
  4  9  1  0
  5 13  2  0
  6  7  1  0
  6  8  1  0
  7 13  1  0
  8 14  1  0
  9 16  1  0
 10 11  1  0
 10 12  1  0
 11 14  1  0
 12 15  1  0
  1 17  1  0
  2 18  1  0
  3 19  1  0
  4 20  1  0
  5 21  1  0
 10 22  1  0
 10 23  1  0
 11 24  1  0
 11 25  1  0
 12 26  1  0
 12 27  1  0
 13 28  1  0
 14 29  1  0
 15 30  1  0
M  CHG  1  13   1
M  END
> <Name>
BR020082

$$$$
BR020083
  SciTegic05062102053D

 33 34  0  0  0  0            999 V2000
   -1.1173    2.6906    1.7587 C   0  0
   -0.2520    1.8768    1.0244 C   0  0
   -4.6100    2.5651    3.0369 C   0  0
   -1.9700    0.1860    0.8482 C   0  0
   -4.9682    1.3162    2.5572 C   0  0
   -2.4223    2.2616    2.0475 C   0  0
   -2.8420    0.9954    1.5829 C   0  0
   -3.3285    3.0402    2.7800 C   0  0
   -0.6774    0.6287    0.5708 C   0  0
    0.0271    6.5220    6.5922 C   0  0
   -3.8808    5.1311    4.0245 C   0  0
   -3.2111    6.4478    4.3733 C   0  0
   -4.0932    0.5811    1.8583 N   0  3
   -2.9770    4.3176    3.2761 N   0  0
   -1.9410    8.2469    6.6354 O   0  0
   -0.5090    8.0709    4.5516 O   0  0
   -2.0676    6.1967    5.1803 O   0  0
   -1.1735    7.4650    5.6874 S   0  0
    0.3964   -0.3673   -0.3336 Cl  0  0
   -0.7499    3.6571    2.0951 H   0  0
    0.7543    2.2306    0.8138 H   0  0
   -5.3265    3.1531    3.6023 H   0  0
   -2.3049   -0.7870    0.4958 H   0  0
   -5.9418    0.8713    2.7111 H   0  0
    0.6076    5.9313    5.8818 H   0  0
    0.6741    7.2154    7.1317 H   0  0
   -0.5013    5.8703    7.2896 H   0  0
   -4.1702    4.5820    4.9261 H   0  0
   -4.7697    5.3067    3.4111 H   0  0
   -3.8982    7.0771    4.9475 H   0  0
   -2.8964    6.9896    3.4755 H   0  0
   -4.3965   -0.3335    1.5227 H   0  0
   -2.0502    4.6382    3.0773 H   0  0
  1  2  1  0
  1  6  2  0
  2  9  2  0
  3  5  1  0
  3  8  2  0
  4  7  2  0
  4  9  1  0
  5 13  2  0
  6  7  1  0
  6  8  1  0
  7 13  1  0
  8 14  1  0
  9 19  1  0
 10 18  1  0
 11 12  1  0
 11 14  1  0
 12 17  1  0
 15 18  2  0
 16 18  2  0
 17 18  1  0
  1 20  1  0
  2 21  1  0
  3 22  1  0
  4 23  1  0
  5 24  1  0
 10 25  1  0
 10 26  1  0
 10 27  1  0
 11 28  1  0
 11 29  1  0
 12 30  1  0
 12 31  1  0
 13 32  1  0
 14 33  1  0
M  CHG  1  13   1
M  END
> <Name>
BR020083

$$$$
BR020084
  SciTegic05062102053D

 36 37  0  0  0  0            999 V2000
   -1.1845    2.0463    3.4654 C   0  0
   -0.3506    0.9284    3.5368 C   0  0
   -4.5764    2.8863    2.1859 C   0  0
   -2.0320   -0.4128    2.4342 C   0  0
   -4.9340    1.6415    1.6954 C   0  0
   -2.4549    1.9487    2.8763 C   0  0
   -2.8723    0.7024    2.3591 C   0  0
   -3.3285    3.0402    2.7800 C   0  0
   -0.7734   -0.2970    3.0227 C   0  0
    0.0278   10.3026    4.2411 C   0  0
   -3.2265    6.7080    3.7741 C   0  0
   -3.8479    5.4459    3.1905 C   0  0
   -1.9494    7.1248    3.0547 C   0  0
   -4.0903    0.6055    1.7934 N   0  3
   -2.9770    4.3176    3.2761 N   0  0
   -0.3105    9.4993    1.7731 O   0  0
    1.0505    8.0617    3.3558 O   0  0
   -1.4356    8.2954    3.6762 O   0  0
   -0.0605    8.9534    3.0916 S   0  0
    0.2614   -1.6695    3.1153 Cl  0  0
   -0.8199    2.9845    3.8768 H   0  0
    0.6287    1.0286    3.9983 H   0  0
   -5.2673    3.7196    2.1016 H   0  0
   -2.3647   -1.3671    2.0322 H   0  0
   -5.8829    1.4342    1.2198 H   0  0
    0.2161    9.8957    5.2358 H   0  0
    0.8426   10.9614    3.9369 H   0  0
   -0.9238   10.8358    4.2198 H   0  0
   -3.9517    7.5293    3.7151 H   0  0
   -3.0141    6.5719    4.8421 H   0  0
   -4.7594    5.1875    3.7384 H   0  0
   -4.1102    5.5872    2.1371 H   0  0
   -1.1875    6.3414    3.1126 H   0  0
   -2.1505    7.3500    2.0025 H   0  0
   -4.3920   -0.2948    1.4197 H   0  0
   -2.0738    4.4037    3.6979 H   0  0
  1  2  1  0
  1  6  2  0
  2  9  2  0
  3  5  1  0
  3  8  2  0
  4  7  2  0
  4  9  1  0
  5 14  2  0
  6  7  1  0
  6  8  1  0
  7 14  1  0
  8 15  1  0
  9 20  1  0
 10 19  1  0
 11 12  1  0
 11 13  1  0
 12 15  1  0
 13 18  1  0
 16 19  2  0
 17 19  2  0
 18 19  1  0
  1 21  1  0
  2 22  1  0
  3 23  1  0
  4 24  1  0
  5 25  1  0
 10 26  1  0
 10 27  1  0
 10 28  1  0
 11 29  1  0
 11 30  1  0
 12 31  1  0
 12 32  1  0
 13 33  1  0
 13 34  1  0
 14 35  1  0
 15 36  1  0
M  CHG  1  14   1
M  END
> <Name>
BR020084

$$$$
BR020085
  SciTegic05062102053D

 28 29  0  0  0  0            999 V2000
   -1.1173    2.6906    1.7587 C   0  0
   -0.2520    1.8768    1.0244 C   0  0
   -4.6100    2.5651    3.0369 C   0  0
   -1.9700    0.1860    0.8482 C   0  0
   -4.9682    1.3162    2.5572 C   0  0
   -2.4223    2.2616    2.0475 C   0  0
   -2.8420    0.9954    1.5829 C   0  0
   -3.3285    3.0402    2.7800 C   0  0
   -0.6774    0.6287    0.5708 C   0  0
   -3.2307    6.4231    4.4881 C   0  0
   -3.8808    5.1311    4.0245 C   0  0
   -1.7239    9.2758    3.7928 N   0  5
   -2.7890    7.1946    3.3238 N   0  0
   -2.2340    8.2795    3.5728 N   0  3
   -4.0932    0.5811    1.8583 N   0  3
   -2.9770    4.3176    3.2761 N   0  0
    0.3964   -0.3673   -0.3336 Cl  0  0
   -0.7499    3.6571    2.0951 H   0  0
    0.7543    2.2306    0.8138 H   0  0
   -5.3265    3.1531    3.6023 H   0  0
   -2.3049   -0.7870    0.4958 H   0  0
   -5.9418    0.8713    2.7111 H   0  0
   -3.9517    7.0212    5.0543 H   0  0
   -2.3706    6.2212    5.1351 H   0  0
   -4.7498    5.3279    3.3885 H   0  0
   -4.2077    4.5402    4.8857 H   0  0
   -4.3965   -0.3335    1.5227 H   0  0
   -2.0502    4.6382    3.0773 H   0  0
  1  2  1  0
  1  6  2  0
  2  9  2  0
  3  5  1  0
  3  8  2  0
  4  7  2  0
  4  9  1  0
  5 15  2  0
  6  7  1  0
  6  8  1  0
  7 15  1  0
  8 16  1  0
  9 17  1  0
 10 11  1  0
 10 13  1  0
 11 16  1  0
 12 14  2  0
 13 14  2  0
  1 18  1  0
  2 19  1  0
  3 20  1  0
  4 21  1  0
  5 22  1  0
 10 23  1  0
 10 24  1  0
 11 25  1  0
 11 26  1  0
 15 27  1  0
 16 28  1  0
M  CHG  3  12  -1  14   1  15   1
M  END
> <Name>
BR020085

$$$$
BR020086
  SciTegic05062102053D

 31 32  0  0  0  0            999 V2000
   -1.1173    2.6906    1.7587 C   0  0
   -0.2520    1.8768    1.0244 C   0  0
   -4.6100    2.5651    3.0369 C   0  0
   -1.9700    0.1860    0.8482 C   0  0
   -4.9682    1.3162    2.5572 C   0  0
   -2.4223    2.2616    2.0475 C   0  0
   -2.8420    0.9954    1.5829 C   0  0
   -3.3285    3.0402    2.7800 C   0  0
   -0.6774    0.6287    0.5708 C   0  0
   -3.2213    6.4645    4.3806 C   0  0
   -4.1536    7.3808    5.1664 C   0  0
   -3.8808    5.1311    4.0245 C   0  0
   -6.0089    7.9852    7.8280 N   0  5
   -4.5421    6.7365    6.4220 N   0  0
   -5.3073    7.3910    7.1529 N   0  3
   -4.0932    0.5811    1.8583 N   0  3
   -2.9770    4.3176    3.2761 N   0  0
    0.3964   -0.3673   -0.3336 Cl  0  0
   -0.7499    3.6571    2.0951 H   0  0
    0.7543    2.2306    0.8138 H   0  0
   -5.3265    3.1531    3.6023 H   0  0
   -2.3049   -0.7870    0.4958 H   0  0
   -5.9418    0.8713    2.7111 H   0  0
   -2.9230    6.9798    3.4588 H   0  0
   -2.3070    6.2854    4.9605 H   0  0
   -3.6398    8.3197    5.3978 H   0  0
   -5.0488    7.6220    4.5840 H   0  0
   -4.1798    4.5943    4.9311 H   0  0
   -4.7819    5.3049    3.4267 H   0  0
   -4.3965   -0.3335    1.5227 H   0  0
   -2.0502    4.6382    3.0773 H   0  0
  1  2  1  0
  1  6  2  0
  2  9  2  0
  3  5  1  0
  3  8  2  0
  4  7  2  0
  4  9  1  0
  5 16  2  0
  6  7  1  0
  6  8  1  0
  7 16  1  0
  8 17  1  0
  9 18  1  0
 10 11  1  0
 10 12  1  0
 11 14  1  0
 12 17  1  0
 13 15  2  0
 14 15  2  0
  1 19  1  0
  2 20  1  0
  3 21  1  0
  4 22  1  0
  5 23  1  0
 10 24  1  0
 10 25  1  0
 11 26  1  0
 11 27  1  0
 12 28  1  0
 12 29  1  0
 16 30  1  0
 17 31  1  0
M  CHG  3  13  -1  15   1  16   1
M  END
> <Name>
BR020086

$$$$
BR020087
  SciTegic05062102053D

 29 30  0  0  0  0            999 V2000
   -1.1173    2.6906    1.7587 C   0  0
   -0.2520    1.8768    1.0244 C   0  0
   -4.6100    2.5651    3.0369 C   0  0
   -1.9700    0.1860    0.8482 C   0  0
   -4.9682    1.3162    2.5572 C   0  0
   -2.4223    2.2616    2.0475 C   0  0
   -2.8420    0.9954    1.5829 C   0  0
   -3.3285    3.0402    2.7800 C   0  0
   -0.6774    0.6287    0.5708 C   0  0
   -3.8808    5.1311    4.0245 C   0  0
   -3.2336    6.4608    4.3631 C   0  0
   -4.0932    0.5811    1.8583 N   0  3
   -2.9770    4.3176    3.2761 N   0  0
   -2.0402    6.2345    5.2154 N   0  3
    0.3964   -0.3673   -0.3336 Cl  0  0
   -0.7499    3.6571    2.0951 H   0  0
    0.7543    2.2306    0.8138 H   0  0
   -5.3265    3.1531    3.6023 H   0  0
   -2.3049   -0.7870    0.4958 H   0  0
   -5.9418    0.8713    2.7111 H   0  0
   -4.1768    4.5904    4.9296 H   0  0
   -4.7768    5.2940    3.4170 H   0  0
   -3.9116    7.0986    4.9372 H   0  0
   -2.8901    6.9961    3.4728 H   0  0
   -4.3965   -0.3335    1.5227 H   0  0
   -2.0502    4.6382    3.0773 H   0  0
   -1.6814    7.1205    5.5866 H   0  0
   -1.2877    5.7878    4.6804 H   0  0
   -2.2670    5.6272    6.0101 H   0  0
  1  2  1  0
  1  6  2  0
  2  9  2  0
  3  5  1  0
  3  8  2  0
  4  7  2  0
  4  9  1  0
  5 12  2  0
  6  7  1  0
  6  8  1  0
  7 12  1  0
  8 13  1  0
  9 15  1  0
 10 11  1  0
 10 13  1  0
 11 14  1  0
  1 16  1  0
  2 17  1  0
  3 18  1  0
  4 19  1  0
  5 20  1  0
 10 21  1  0
 10 22  1  0
 11 23  1  0
 11 24  1  0
 12 25  1  0
 13 26  1  0
 14 27  1  0
 14 28  1  0
 14 29  1  0
M  CHG  2  12   1  14   1
M  END
> <Name>
BR020087

$$$$
BR020088
  SciTegic05062102053D

 32 33  0  0  0  0            999 V2000
   -1.1173    2.6906    1.7587 C   0  0
   -0.2520    1.8768    1.0244 C   0  0
   -4.6100    2.5651    3.0369 C   0  0
   -1.9700    0.1860    0.8482 C   0  0
   -4.9682    1.3162    2.5572 C   0  0
   -2.4223    2.2616    2.0475 C   0  0
   -2.8420    0.9954    1.5829 C   0  0
   -3.3285    3.0402    2.7800 C   0  0
   -0.6774    0.6287    0.5708 C   0  0
   -3.2287    6.4550    4.4148 C   0  0
   -3.8808    5.1311    4.0245 C   0  0
   -4.1673    7.3472    5.2173 C   0  0
   -4.0932    0.5811    1.8583 N   0  3
   -2.9770    4.3176    3.2761 N   0  0
   -3.4803    8.6277    5.5158 N   0  3
    0.3964   -0.3673   -0.3336 Cl  0  0
   -0.7499    3.6571    2.0951 H   0  0
    0.7543    2.2306    0.8138 H   0  0
   -5.3265    3.1531    3.6023 H   0  0
   -2.3049   -0.7870    0.4958 H   0  0
   -5.9418    0.8713    2.7111 H   0  0
   -2.8909    6.9839    3.5145 H   0  0
   -2.3339    6.2392    5.0119 H   0  0
   -4.1745    4.5874    4.9283 H   0  0
   -4.7878    5.3085    3.4371 H   0  0
   -5.0757    7.6006    4.6634 H   0  0
   -4.4346    6.8997    6.1791 H   0  0
   -4.3965   -0.3335    1.5227 H   0  0
   -2.0502    4.6382    3.0773 H   0  0
   -3.4706    9.2396    4.6928 H   0  0
   -2.5082    8.4645    5.7997 H   0  0
   -3.9520    9.1286    6.2765 H   0  0
  1  2  1  0
  1  6  2  0
  2  9  2  0
  3  5  1  0
  3  8  2  0
  4  7  2  0
  4  9  1  0
  5 13  2  0
  6  7  1  0
  6  8  1  0
  7 13  1  0
  8 14  1  0
  9 16  1  0
 10 11  1  0
 10 12  1  0
 11 14  1  0
 12 15  1  0
  1 17  1  0
  2 18  1  0
  3 19  1  0
  4 20  1  0
  5 21  1  0
 10 22  1  0
 10 23  1  0
 11 24  1  0
 11 25  1  0
 12 26  1  0
 12 27  1  0
 13 28  1  0
 14 29  1  0
 15 30  1  0
 15 31  1  0
 15 32  1  0
M  CHG  2  13   1  15   1
M  END
> <Name>
BR020088

$$$$
BR020089
  SciTegic05062102053D

 40 42  0  0  0  0            999 V2000
    1.1284    2.3242   -5.5925 C   0  0
    2.2412    2.5817   -6.3960 C   0  0
   -2.5220    1.7491   -6.0302 C   0  0
    0.8474    2.5202   -8.3695 C   0  0
   -2.5916    1.8582   -7.4091 C   0  0
   -0.1413    2.1613   -6.1685 C   0  0
   -0.2714    2.2622   -7.5713 C   0  0
   -1.2886    1.9018   -5.4065 C   0  0
    2.1007    2.6794   -7.7799 C   0  0
   -1.0811   -1.6147   -2.2006 C   0  0
    0.3120   -0.0984   -0.8072 C   0  0
    0.1473   -2.4951   -2.3562 C   0  0
    1.4683   -1.0574   -1.0343 C   0  0
   -2.2899    1.1115   -3.2621 C   0  0
   -1.7745    0.7642   -1.8782 C   0  0
   -1.4880    2.1064   -8.1268 N   0  3
   -1.2349    1.7919   -4.0460 N   0  0
   -0.6214   -0.1911   -1.9914 N   0  3
    0.9870   -2.3913   -1.2054 O   0  0
    3.4782    2.9970   -8.7620 Cl  0  0
    1.2774    2.2554   -4.5176 H   0  0
    3.2145    2.7036   -5.9268 H   0  0
   -3.4223    1.5478   -5.4576 H   0  0
    0.7344    2.5958   -9.4487 H   0  0
   -3.5081    1.7534   -7.9736 H   0  0
   -1.7051   -1.6370   -3.0992 H   0  0
   -1.6704   -1.8957   -1.3209 H   0  0
   -0.2684   -0.3688    0.0817 H   0  0
    0.6595    0.9365   -0.7345 H   0  0
   -0.1576   -3.5419   -2.4511 H   0  0
    0.7210   -2.2357   -3.2542 H   0  0
    2.0688   -0.7696   -1.9055 H   0  0
    2.1294   -1.0530   -0.1619 H   0  0
   -2.6109    0.2157   -3.8039 H   0  0
   -3.1472    1.7878   -3.1843 H   0  0
   -2.5411    0.2600   -1.2830 H   0  0
   -1.4070    1.6417   -1.3377 H   0  0
   -1.5821    2.1793   -9.1402 H   0  0
   -0.4741    2.1721   -3.5251 H   0  0
   -0.0888    0.0881   -2.8271 H   0  0
  1  2  1  0
  1  6  2  0
  2  9  2  0
  3  5  1  0
  3  8  2  0
  4  7  2  0
  4  9  1  0
  5 16  2  0
  6  7  1  0
  6  8  1  0
  7 16  1  0
  8 17  1  0
  9 20  1  0
 10 12  1  0
 10 18  1  0
 11 13  1  0
 11 18  1  0
 12 19  1  0
 13 19  1  0
 14 15  1  0
 14 17  1  0
 15 18  1  0
  1 21  1  0
  2 22  1  0
  3 23  1  0
  4 24  1  0
  5 25  1  0
 10 26  1  0
 10 27  1  0
 11 28  1  0
 11 29  1  0
 12 30  1  0
 12 31  1  0
 13 32  1  0
 13 33  1  0
 14 34  1  0
 14 35  1  0
 15 36  1  0
 15 37  1  0
 16 38  1  0
 17 39  1  0
 18 40  1  0
M  CHG  2  16   1  18   1
M  END
> <Name>
BR020089

$$$$
BR020090
  SciTegic05062102053D

 43 45  0  0  0  0            999 V2000
   -1.9455    5.7828   -0.6294 C   0  0
   -1.6200    6.8604    0.1971 C   0  0
   -4.7789    4.7181   -2.7942 C   0  0
   -3.7397    7.9059   -0.3087 C   0  0
   -5.6203    5.7994   -2.5919 C   0  0
   -3.1744    5.7530   -1.3071 C   0  0
   -4.0724    6.8302   -1.1379 C   0  0
   -3.5481    4.6954   -2.1473 C   0  0
   -2.5145    7.9183    0.3567 C   0  0
    0.0441   -0.3167   -4.8845 C   0  0
   -1.5924   -2.1249   -4.4008 C   0  0
    1.1426   -1.3499   -4.7006 C   0  0
   -0.4093   -3.0648   -4.2424 C   0  0
   -1.9373    1.4551   -3.2263 C   0  0
   -3.0557    2.4939   -3.2134 C   0  0
   -2.2630    0.2662   -4.1216 C   0  0
   -5.2520    6.8045   -1.7866 N   0  3
   -2.7168    3.6070   -2.3588 N   0  0
   -1.1406   -0.7285   -4.0426 N   0  3
    0.6765   -2.6480   -5.0717 O   0  0
   -2.1045    9.2422    1.3775 Cl  0  0
   -1.2227    4.9766   -0.7286 H   0  0
   -0.6620    6.8612    0.7111 H   0  0
   -5.0867    3.9084   -3.4489 H   0  0
   -4.4395    8.7294   -0.1863 H   0  0
   -6.5927    5.8975   -3.0549 H   0  0
    0.3664    0.6735   -4.5483 H   0  0
   -0.2989   -0.2726   -5.9240 H   0  0
   -1.9467   -2.0924   -5.4369 H   0  0
   -2.4108   -2.3955   -3.7269 H   0  0
    1.9920   -1.1054   -5.3461 H   0  0
    1.5091   -1.3726   -3.6673 H   0  0
   -0.0737   -3.1224   -3.2001 H   0  0
   -0.6950   -4.0747   -4.5533 H   0  0
   -1.7386    1.1084   -2.2042 H   0  0
   -1.0186    1.9374   -3.5831 H   0  0
   -3.2181    2.8693   -4.2290 H   0  0
   -3.9944    2.0431   -2.8744 H   0  0
   -3.1691   -0.2578   -3.8045 H   0  0
   -2.3542    0.5578   -5.1721 H   0  0
   -5.9007    7.5826   -1.6644 H   0  0
   -1.8200    3.5902   -1.8859 H   0  0
   -0.8314   -0.7461   -3.0609 H   0  0
  1  2  1  0
  1  6  2  0
  2  9  2  0
  3  5  1  0
  3  8  2  0
  4  7  2  0
  4  9  1  0
  5 17  2  0
  6  7  1  0
  6  8  1  0
  7 17  1  0
  8 18  1  0
  9 21  1  0
 10 12  1  0
 10 19  1  0
 11 13  1  0
 11 19  1  0
 12 20  1  0
 13 20  1  0
 14 15  1  0
 14 16  1  0
 15 18  1  0
 16 19  1  0
  1 22  1  0
  2 23  1  0
  3 24  1  0
  4 25  1  0
  5 26  1  0
 10 27  1  0
 10 28  1  0
 11 29  1  0
 11 30  1  0
 12 31  1  0
 12 32  1  0
 13 33  1  0
 13 34  1  0
 14 35  1  0
 14 36  1  0
 15 37  1  0
 15 38  1  0
 16 39  1  0
 16 40  1  0
 17 41  1  0
 18 42  1  0
 19 43  1  0
M  CHG  2  17   1  19   1
M  END
> <Name>
BR020090

$$$$
BR020091
  SciTegic05062102053D

 42 44  0  0  0  0            999 V2000
   -3.2838   -0.1686   -5.0514 C   0  0
   -4.1521    0.8672   -5.4025 C   0  0
    0.1520   -1.3068   -5.9161 C   0  0
   -2.4948    1.7609   -6.9179 C   0  0
    0.4795   -0.3208   -6.8318 C   0  0
   -2.0077   -0.2530   -5.6301 C   0  0
   -1.6200    0.7265   -6.5711 C   0  0
   -1.0999   -1.2721   -5.3117 C   0  0
   -3.7586    1.8285   -6.3328 C   0  0
   -1.8145   -1.4222    1.0558 C   0  0
   -2.9479   -2.1476    0.3385 C   0  0
   -0.7647   -0.9248    0.0679 C   0  0
   -2.4266   -3.2662   -0.5523 C   0  0
   -0.2513   -2.0475   -0.8221 C   0  0
   -0.3740   -3.0646   -3.7351 C   0  0
   -0.9560   -3.7430   -2.5094 C   0  0
   -0.3966    0.6484   -7.1280 N   0  3
   -1.4094   -2.2511   -4.4108 N   0  0
   -1.4163   -2.7040   -1.5243 N   0  3
   -4.8358    3.1016   -6.7594 Cl  0  0
   -3.6262   -0.8995   -4.3227 H   0  0
   -5.1353    0.9117   -4.9403 H   0  0
    0.8692   -2.0880   -5.6829 H   0  0
   -2.1848    2.5091   -7.6438 H   0  0
    1.4291   -0.2722   -7.3470 H   0  0
   -2.2166   -0.5779    1.6269 H   0  0
   -1.3442   -2.1023    1.7768 H   0  0
   -3.6449   -2.5607    1.0760 H   0  0
   -3.5143   -1.4292   -0.2672 H   0  0
   -1.1974   -0.1314   -0.5543 H   0  0
    0.0729   -0.4782    0.6153 H   0  0
   -1.9296   -4.0519    0.0277 H   0  0
   -3.2409   -3.7029   -1.1394 H   0  0
    0.4182   -1.6529   -1.5933 H   0  0
    0.2685   -2.8206   -0.2450 H   0  0
    0.4676   -2.4163   -3.4695 H   0  0
   -0.0139   -3.8166   -4.4445 H   0  0
   -0.2047   -4.3497   -1.9959 H   0  0
   -1.8270   -4.3606   -2.7485 H   0  0
   -0.1165    1.3558   -7.8078 H   0  0
   -2.3562   -2.4565   -4.1737 H   0  0
   -1.8929   -1.9750   -2.0730 H   0  0
  1  2  1  0
  1  6  2  0
  2  9  2  0
  3  5  1  0
  3  8  2  0
  4  7  2  0
  4  9  1  0
  5 17  2  0
  6  7  1  0
  6  8  1  0
  7 17  1  0
  8 18  1  0
  9 20  1  0
 10 11  1  0
 10 12  1  0
 11 13  1  0
 12 14  1  0
 13 19  1  0
 14 19  1  0
 15 16  1  0
 15 18  1  0
 16 19  1  0
  1 21  1  0
  2 22  1  0
  3 23  1  0
  4 24  1  0
  5 25  1  0
 10 26  1  0
 10 27  1  0
 11 28  1  0
 11 29  1  0
 12 30  1  0
 12 31  1  0
 13 32  1  0
 13 33  1  0
 14 34  1  0
 14 35  1  0
 15 36  1  0
 15 37  1  0
 16 38  1  0
 16 39  1  0
 17 40  1  0
 18 41  1  0
 19 42  1  0
M  CHG  2  17   1  19   1
M  END
> <Name>
BR020091

$$$$
BR020092
  SciTegic05062102053D

 45 47  0  0  0  0            999 V2000
   -1.5656   -8.7195   -3.1088 C   0  0
   -1.5246  -10.0257   -2.6165 C   0  0
   -1.0872   -6.9764   -6.3616 C   0  0
   -0.9822  -10.8541   -4.8213 C   0  0
   -0.8050   -8.0766   -7.1540 C   0  0
   -1.3148   -8.4636   -4.4660 C   0  0
   -1.0215   -9.5487   -5.3213 C   0  0
   -1.3437   -7.1719   -5.0089 C   0  0
   -1.2338  -11.0892   -3.4702 C   0  0
   -1.7122   -1.7063    1.2474 C   0  0
   -2.8762   -2.3170    0.4743 C   0  0
   -0.6421   -1.1706    0.3023 C   0  0
   -2.4040   -3.3753   -0.5123 C   0  0
   -0.1781   -2.2327   -0.6840 C   0  0
   -1.9898   -3.7172   -3.6282 C   0  0
   -1.6655   -4.7123   -4.7394 C   0  0
   -0.9560   -3.7430   -2.5094 C   0  0
   -0.7805   -9.3065   -6.6237 N   0  3
   -1.6242   -6.0618   -4.2282 N   0  0
   -1.3706   -2.7748   -1.4359 N   0  3
   -1.1857  -12.6958   -2.8542 Cl  0  0
   -1.7954   -7.9165   -2.4126 H   0  0
   -1.7230  -10.1989   -1.5615 H   0  0
   -1.1047   -5.9837   -6.8010 H   0  0
   -0.7551  -11.6813   -5.4898 H   0  0
   -0.5946   -8.0149   -8.2130 H   0  0
   -2.0773   -0.8983    1.8914 H   0  0
   -1.2717   -2.4661    1.9047 H   0  0
   -3.5902   -2.7622    1.1760 H   0  0
   -3.4111   -1.5249   -0.0643 H   0  0
   -1.0403   -0.3082   -0.2469 H   0  0
    0.2141   -0.8098    0.8830 H   0  0
   -1.9414   -4.2292   -0.0048 H   0  0
   -3.2367   -3.7237   -1.1319 H   0  0
    0.5077   -1.8017   -1.4207 H   0  0
    0.3079   -3.0747   -0.1783 H   0  0
   -2.9865   -3.9265   -3.2195 H   0  0
   -2.0289   -2.7107   -4.0632 H   0  0
   -2.4344   -4.6561   -5.5168 H   0  0
   -0.7058   -4.4670   -5.2064 H   0  0
   -0.8817   -4.7252   -2.0339 H   0  0
    0.0316   -3.4261   -2.8572 H   0  0
   -0.5685  -10.0904   -7.2416 H   0  0
   -1.8098   -6.2046   -3.2416 H   0  0
   -1.8153   -1.9809   -1.9172 H   0  0
  1  2  1  0
  1  6  2  0
  2  9  2  0
  3  5  1  0
  3  8  2  0
  4  7  2  0
  4  9  1  0
  5 18  2  0
  6  7  1  0
  6  8  1  0
  7 18  1  0
  8 19  1  0
  9 21  1  0
 10 11  1  0
 10 12  1  0
 11 13  1  0
 12 14  1  0
 13 20  1  0
 14 20  1  0
 15 16  1  0
 15 17  1  0
 16 19  1  0
 17 20  1  0
  1 22  1  0
  2 23  1  0
  3 24  1  0
  4 25  1  0
  5 26  1  0
 10 27  1  0
 10 28  1  0
 11 29  1  0
 11 30  1  0
 12 31  1  0
 12 32  1  0
 13 33  1  0
 13 34  1  0
 14 35  1  0
 14 36  1  0
 15 37  1  0
 15 38  1  0
 16 39  1  0
 16 40  1  0
 17 41  1  0
 17 42  1  0
 18 43  1  0
 19 44  1  0
 20 45  1  0
M  CHG  2  18   1  20   1
M  END
> <Name>
BR020092

$$$$
BR020093
  SciTegic05062102053D

 33 35  0  0  0  0            999 V2000
   -2.1486    8.9171    5.0638 C   0  0
   -2.0074    7.8266    5.9220 C   0  0
   -2.8529    8.7768    3.8679 C   0  0
   -1.1173    2.6906    1.7587 C   0  0
   -2.5704    6.5959    5.5845 C   0  0
   -3.4159    7.5461    3.5304 C   0  0
   -0.2520    1.8768    1.0244 C   0  0
   -4.6100    2.5651    3.0369 C   0  0
   -1.9700    0.1860    0.8482 C   0  0
   -4.9682    1.3162    2.5572 C   0  0
   -2.4223    2.2616    2.0475 C   0  0
   -3.2747    6.4556    4.3886 C   0  0
   -2.8420    0.9954    1.5829 C   0  0
   -3.3285    3.0402    2.7800 C   0  0
   -0.6774    0.6287    0.5708 C   0  0
   -3.8808    5.1311    4.0245 C   0  0
   -4.0932    0.5811    1.8583 N   0  3
   -2.9770    4.3176    3.2761 N   0  0
    0.3964   -0.3673   -0.3336 Cl  0  0
   -1.7113    9.8756    5.3274 H   0  0
   -1.4600    7.9359    6.8537 H   0  0
   -2.9639    9.6259    3.2000 H   0  0
   -0.7499    3.6571    2.0951 H   0  0
   -2.4552    5.7517    6.2592 H   0  0
   -3.9628    7.4461    2.5965 H   0  0
    0.7543    2.2306    0.8138 H   0  0
   -5.3265    3.1531    3.6023 H   0  0
   -2.3049   -0.7870    0.4958 H   0  0
   -5.9418    0.8713    2.7111 H   0  0
   -4.1668    4.5768    4.9250 H   0  0
   -4.7865    5.2653    3.4238 H   0  0
   -4.3965   -0.3335    1.5227 H   0  0
   -2.0502    4.6382    3.0773 H   0  0
  1  2  2  0
  1  3  1  0
  2  5  1  0
  3  6  2  0
  4  7  1  0
  4 11  2  0
  5 12  2  0
  6 12  1  0
  7 15  2  0
  8 10  1  0
  8 14  2  0
  9 13  2  0
  9 15  1  0
 10 17  2  0
 11 13  1  0
 11 14  1  0
 12 16  1  0
 13 17  1  0
 14 18  1  0
 15 19  1  0
 16 18  1  0
  1 20  1  0
  2 21  1  0
  3 22  1  0
  4 23  1  0
  5 24  1  0
  6 25  1  0
  7 26  1  0
  8 27  1  0
  9 28  1  0
 10 29  1  0
 16 30  1  0
 16 31  1  0
 17 32  1  0
 18 33  1  0
M  CHG  1  17   1
M  END
> <Name>
BR020093

$$$$
BR020094
  SciTegic05062102053D

 38 40  0  0  0  0            999 V2000
    5.5561   -2.8079   -0.2075 C   0  0
    6.8438   -2.5759    0.2806 C   0  0
    3.5160   -5.7004   -1.3562 C   0  0
    7.3484   -4.9333    0.1081 C   0  0
    4.4510   -6.7061   -1.1763 C   0  0
    5.1475   -4.1079   -0.5446 C   0  0
    6.0606   -5.1732   -0.3812 C   0  0
    3.8672   -4.3930   -1.0381 C   0  0
    7.7368   -3.6354    0.4376 C   0  0
    0.9178   -2.2785   -1.8173 C   0  0
   -1.1232   -1.0135   -2.4132 C   0  0
   -1.1999   -3.4676   -2.5688 C   0  0
   -1.8560   -0.9550   -3.7459 C   0  0
   -1.9349   -3.3066   -3.8935 C   0  0
    1.5956   -3.6221   -1.7245 C   0  0
    5.6717   -6.4212   -0.7037 N   0  3
   -0.3936   -2.2751   -2.2875 N   0  0
    2.9170   -3.3921   -1.2244 N   0  0
    1.5366   -1.2642   -1.4857 O   0  0
   -2.7008   -2.0990   -3.8955 O   0  0
    9.3219   -3.3397    1.0400 Cl  0  0
    4.8884   -1.9567   -0.3165 H   0  0
    7.1370   -1.5604    0.5355 H   0  0
    2.5293   -5.9416   -1.7399 H   0  0
    8.0425   -5.7619    0.2294 H   0  0
    4.2617   -7.7476   -1.3976 H   0  0
   -0.4516   -0.1562   -2.3081 H   0  0
   -1.8414   -0.9862   -1.5851 H   0  0
   -1.9198   -3.5530   -1.7463 H   0  0
   -0.5988   -4.3782   -2.5861 H   0  0
   -2.4875   -0.0622   -3.7892 H   0  0
   -1.1541   -0.9114   -4.5871 H   0  0
   -1.2359   -3.2920   -4.7383 H   0  0
   -2.6251   -4.1425   -4.0443 H   0  0
    1.6212   -4.0582   -2.7187 H   0  0
    1.0207   -4.2459   -1.0464 H   0  0
    6.3312   -7.1908   -0.5858 H   0  0
    3.1919   -2.4392   -0.9873 H   0  0
  1  2  1  0
  1  6  2  0
  2  9  2  0
  3  5  1  0
  3  8  2  0
  4  7  2  0
  4  9  1  0
  5 16  2  0
  6  7  1  0
  6  8  1  0
  7 16  1  0
  8 18  1  0
  9 21  1  0
 10 15  1  0
 10 17  1  0
 10 19  2  0
 11 13  1  0
 11 17  1  0
 12 14  1  0
 12 17  1  0
 13 20  1  0
 14 20  1  0
 15 18  1  0
  1 22  1  0
  2 23  1  0
  3 24  1  0
  4 25  1  0
  5 26  1  0
 11 27  1  0
 11 28  1  0
 12 29  1  0
 12 30  1  0
 13 31  1  0
 13 32  1  0
 14 33  1  0
 14 34  1  0
 15 35  1  0
 15 36  1  0
 16 37  1  0
 18 38  1  0
M  CHG  1  16   1
M  END
> <Name>
BR020094

$$$$
BR020095
  SciTegic05062102053D

 40 42  0  0  0  0            999 V2000
   -1.2671    2.6106   -1.4528 C   0  0
   -2.4814    3.2921   -1.5579 C   0  0
    1.9197    2.9197    0.4437 C   0  0
   -1.7330    4.9056    0.0785 C   0  0
    1.6251    4.0603    1.1720 C   0  0
   -0.2684    3.0689   -0.5791 C   0  0
   -0.5146    4.2284    0.1891 C   0  0
    0.9663    2.4213   -0.4374 C   0  0
   -2.7132    4.4359   -0.7946 C   0  0
    0.9345   -0.0289   -0.5691 C   0  0
    2.4324    1.2733   -2.0711 C   0  0
    0.7814   -1.0932   -1.6473 C   0  0
    2.2800    0.2030   -3.1445 C   0  0
    1.9979   -2.2504   -3.4916 C   0  0
    3.4075   -2.5349   -3.9714 C   0  0
    0.4413    4.6705    1.0280 N   0  3
    1.2781    1.2681   -1.1668 N   0  0
    2.0314   -1.1312   -2.4893 N   0  3
    4.2105   -2.9454   -2.8727 O   0  0
   -4.2132    5.2692   -0.9310 Cl  0  0
   -1.1230    1.7230   -2.0642 H   0  0
   -3.2398    2.9176   -2.2411 H   0  0
    2.8821    2.4325    0.5677 H   0  0
   -1.9106    5.7974    0.6753 H   0  0
    2.3073    4.5140    1.8778 H   0  0
   -0.0097    0.0474   -0.0158 H   0  0
    1.7134   -0.3268    0.1450 H   0  0
    3.3537    1.1014   -1.4993 H   0  0
    2.5262    2.2500   -2.5615 H   0  0
    0.6528   -2.0831   -1.1976 H   0  0
   -0.0613   -0.8801   -2.3153 H   0  0
    1.4307    0.4094   -3.8060 H   0  0
    3.1957    0.1171   -3.7387 H   0  0
    1.5556   -3.1096   -2.9795 H   0  0
    1.3513   -1.9203   -4.3089 H   0  0
    3.3939   -3.3493   -4.7025 H   0  0
    3.8625   -1.6536   -4.4351 H   0  0
    0.2636    5.5081    1.5829 H   0  0
    2.8241   -1.3231   -1.8617 H   0  0
    5.0994   -3.1160   -3.2239 H   0  0
  1  2  1  0
  1  6  2  0
  2  9  2  0
  3  5  1  0
  3  8  2  0
  4  7  2  0
  4  9  1  0
  5 16  2  0
  6  7  1  0
  6  8  1  0
  7 16  1  0
  8 17  1  0
  9 20  1  0
 10 12  1  0
 10 17  1  0
 11 13  1  0
 11 17  1  0
 12 18  1  0
 13 18  1  0
 14 15  1  0
 14 18  1  0
 15 19  1  0
  1 21  1  0
  2 22  1  0
  3 23  1  0
  4 24  1  0
  5 25  1  0
 10 26  1  0
 10 27  1  0
 11 28  1  0
 11 29  1  0
 12 30  1  0
 12 31  1  0
 13 32  1  0
 13 33  1  0
 14 34  1  0
 14 35  1  0
 15 36  1  0
 15 37  1  0
 16 38  1  0
 18 39  1  0
 19 40  1  0
M  CHG  2  16   1  18   1
M  END
> <Name>
BR020095

$$$$
BR020096
  SciTegic05062102053D

 29 30  0  0  0  0            999 V2000
   -1.1173    2.6906    1.7587 C   0  0
   -0.2520    1.8768    1.0244 C   0  0
   -4.6100    2.5651    3.0369 C   0  0
   -1.9700    0.1860    0.8482 C   0  0
   -4.9682    1.3162    2.5572 C   0  0
   -2.4223    2.2616    2.0475 C   0  0
   -2.8420    0.9954    1.5829 C   0  0
   -3.3285    3.0402    2.7800 C   0  0
   -0.6774    0.6287    0.5708 C   0  0
   -2.8581    7.3091    3.2227 C   0  0
   -3.2651    6.4669    4.4235 C   0  0
   -3.8808    5.1311    4.0245 C   0  0
   -4.0932    0.5811    1.8583 N   0  3
   -2.9770    4.3176    3.2761 N   0  0
    0.3964   -0.3673   -0.3336 Cl  0  0
   -0.7499    3.6571    2.0951 H   0  0
    0.7543    2.2306    0.8138 H   0  0
   -5.3265    3.1531    3.6023 H   0  0
   -2.3049   -0.7870    0.4958 H   0  0
   -5.9418    0.8713    2.7111 H   0  0
   -2.1267    6.7807    2.6029 H   0  0
   -3.7330    7.5273    2.6018 H   0  0
   -2.4215    8.2631    3.5339 H   0  0
   -3.9955    7.0307    5.0153 H   0  0
   -2.3887    6.3019    5.0613 H   0  0
   -4.1561    4.5637    4.9190 H   0  0
   -4.7824    5.2737    3.4205 H   0  0
   -4.3965   -0.3335    1.5227 H   0  0
   -2.0502    4.6382    3.0773 H   0  0
  1  2  1  0
  1  6  2  0
  2  9  2  0
  3  5  1  0
  3  8  2  0
  4  7  2  0
  4  9  1  0
  5 13  2  0
  6  7  1  0
  6  8  1  0
  7 13  1  0
  8 14  1  0
  9 15  1  0
 10 11  1  0
 11 12  1  0
 12 14  1  0
  1 16  1  0
  2 17  1  0
  3 18  1  0
  4 19  1  0
  5 20  1  0
 10 21  1  0
 10 22  1  0
 10 23  1  0
 11 24  1  0
 11 25  1  0
 12 26  1  0
 12 27  1  0
 13 28  1  0
 14 29  1  0
M  CHG  1  13   1
M  END
> <Name>
BR020096

$$$$
BR020097
  SciTegic05062102053D

 23 24  0  0  0  0            999 V2000
   -0.1836    7.7140   -3.3411 C   0  0
   -1.1173    6.9985   -3.1013 C   0  0
   -0.5812    3.2417   -0.8037 C   0  0
    0.1298    2.0977   -0.4527 C   0  0
   -4.0902    4.2376   -1.4936 C   0  0
   -1.9323    0.8440   -0.4461 C   0  0
   -4.6804    3.0058   -1.2959 C   0  0
   -1.9747    3.1875   -0.9770 C   0  0
   -2.6683    1.9725   -0.7968 C   0  0
   -2.7151    4.3237   -1.3301 C   0  0
   -0.5469    0.8976   -0.2738 C   0  0
   -2.2562    6.1269   -2.8113 C   0  0
   -4.0027    1.8858   -0.9548 N   0  0
   -2.1163    5.5347   -1.5226 O   0  0
    0.3204   -0.5234    0.1633 Cl  0  0
    0.6447    8.3487   -3.5541 H   0  0
   -0.0318    4.1702   -0.9388 H   0  0
    1.2068    2.1583   -0.3217 H   0  0
   -4.6849    5.1017   -1.7676 H   0  0
   -2.4532   -0.1021   -0.3035 H   0  0
   -5.7516    2.8775   -1.4108 H   0  0
   -2.3446    5.3270   -3.5530 H   0  0
   -3.1896    6.6976   -2.8186 H   0  0
  1  2  3  0
  2 12  1  0
  3  4  1  0
  3  8  2  0
  4 11  2  0
  5  7  1  0
  5 10  2  0
  6  9  2  0
  6 11  1  0
  7 13  2  0
  8  9  1  0
  8 10  1  0
  9 13  1  0
 10 14  1  0
 11 15  1  0
 12 14  1  0
  1 16  1  0
  3 17  1  0
  4 18  1  0
  5 19  1  0
  6 20  1  0
  7 21  1  0
 12 22  1  0
 12 23  1  0
M  END
> <Name>
BR020097

$$$$
BR020098
  SciTegic05062102053D

 45 48  0  0  0  0            999 V2000
    4.2192   -7.1876    2.9564 C   0  0
    3.6538   -8.3859    3.3827 C   0  0
    7.5540   -5.5594    2.8631 C   0  0
    5.8288   -9.1239    4.1233 C   0  0
    8.2787   -6.5754    3.4525 C   0  0
    3.6046   -4.4981   -0.4740 C   0  0
    5.5962   -6.9554    3.1138 C   0  0
    6.4207   -7.9350    3.7059 C   0  0
    6.1914   -5.7583    2.6937 C   0  0
    4.4599   -9.3550    3.9668 C   0  0
    4.6799   -3.8369    0.0641 C   0  0
    0.4588   -3.1607   -0.8481 C   0  0
   -1.9770   -2.7916   -0.6210 C   0  0
   -1.1544   -3.8196   -2.6993 C   0  0
   -2.8954   -1.9250   -1.4709 C   0  0
   -2.1117   -2.9132   -3.4629 C   0  0
    5.8362   -4.3850    0.7848 C   0  0
    1.5956   -3.6221   -1.7245 C   0  0
    7.7433   -7.7448    3.8717 N   0  0
    4.5546   -2.4945   -0.1631 N   0  0
    3.4234   -2.2975   -0.8315 N   0  0
    2.8553   -3.5001   -1.0168 N   0  0
   -0.8181   -3.2244   -1.4017 N   0  0
    0.6996   -2.7530    0.2910 O   0  0
   -3.2623   -2.6189   -2.6662 O   0  0
    5.4595   -4.7615    2.1120 O   0  0
    3.7734  -10.8423    4.4953 Cl  0  0
    3.5701   -6.4430    2.5020 H   0  0
    2.5874   -8.5489    3.2519 H   0  0
    8.0377   -4.6418    2.5475 H   0  0
    6.4520   -9.8905    4.5826 H   0  0
    9.3473   -6.4761    3.6119 H   0  0
    3.3210   -5.5402   -0.5176 H   0  0
   -1.6682   -2.2526    0.2796 H   0  0
   -2.4995   -3.7036   -0.3090 H   0  0
   -1.6371   -4.7795   -2.4814 H   0  0
   -0.2686   -4.0180   -3.3049 H   0  0
   -3.8126   -1.6956   -0.9199 H   0  0
   -2.4165   -0.9752   -1.7369 H   0  0
   -1.6253   -1.9748   -3.7547 H   0  0
   -2.4533   -3.4113   -4.3755 H   0  0
    6.2581   -5.2810    0.2899 H   0  0
    6.6654   -3.6558    0.8641 H   0  0
    1.6209   -3.0050   -2.6197 H   0  0
    1.4305   -4.6627   -1.9947 H   0  0
  1  2  1  0
  1  7  2  0
  2 10  2  0
  3  5  1  0
  3  9  2  0
  4  8  2  0
  4 10  1  0
  5 19  2  0
  6 11  2  0
  6 22  1  0
  7  8  1  0
  7  9  1  0
  8 19  1  0
  9 26  1  0
 10 27  1  0
 11 17  1  0
 11 20  1  0
 12 18  1  0
 12 23  1  0
 12 24  2  0
 13 15  1  0
 13 23  1  0
 14 16  1  0
 14 23  1  0
 15 25  1  0
 16 25  1  0
 17 26  1  0
 18 22  1  0
 20 21  2  0
 21 22  1  0
  1 28  1  0
  2 29  1  0
  3 30  1  0
  4 31  1  0
  5 32  1  0
  6 33  1  0
 13 34  1  0
 13 35  1  0
 14 36  1  0
 14 37  1  0
 15 38  1  0
 15 39  1  0
 16 40  1  0
 16 41  1  0
 17 42  1  0
 17 43  1  0
 18 44  1  0
 18 45  1  0
M  END
> <Name>
BR020098

$$$$
BR020099
  SciTegic05062102053D

 68 71  0  0  1  0            999 V2000
   -8.2831    1.5539   -3.9136 C   0  0
   -8.9283    2.7683   -3.6984 C   0  0
   -8.6261   -1.4350   -6.0883 C   0  0
  -10.5250    2.1999   -5.4164 C   0  0
   -9.7453   -1.0336   -6.7890 C   0  0
   -4.0887    0.2184   -3.9578 C   0  0
   -8.7604    0.6574   -4.8848 C   0  0
   -9.8993    0.9789   -5.6526 C   0  0
   -8.1303   -0.5716   -5.1221 C   0  0
  -10.0506    3.0913   -4.4509 C   0  0
   -4.6453   -0.9709   -4.3563 C   0  0
   -2.3673    2.7233    1.5063 C   0  0
    1.7161    1.2182    1.0648 C   0  0
   -4.7046    1.2927   -0.4429 C   0  0
    2.4897   -2.1810   -1.7404 C   0  0
   -1.3384    1.6626   -0.3375 C   0  0  1  0  0  0
    0.0024    0.9550   -0.5408 C   0  0  1  0  0  0
   -2.4603    0.9571   -1.1020 C   0  0  2  0  0  0
    0.2712    0.7216   -2.0306 C   0  0  1  0  0  0
   -2.0474    0.6854   -2.5533 C   0  0  2  0  0  0
   -2.6144    2.5814    2.9777 C   0  0
    2.7505    2.1847    1.5566 C   0  0
   -5.8244    2.2877   -0.4890 C   0  0
    2.2147   -3.4610   -1.0111 C   0  0
   -5.8382   -1.2032   -5.1808 C   0  0
    1.5476   -0.0793   -2.2689 C   0  0
  -10.3827    0.1430   -6.5910 N   0  0
   -3.9064   -2.0114   -3.8654 N   0  0
   -2.8981   -1.5019   -3.1663 N   0  0
   -3.0093   -0.1649   -3.2228 N   0  0
   -2.7640    3.6646    0.8326 O   0  0
    1.5385    0.1044    1.5393 O   0  0
   -4.7870    0.1924    0.0861 O   0  0
    3.5265   -1.9469   -2.3465 O   0  0
   -0.8033   -0.0140   -2.6175 O   0  0
   -7.0227   -0.9548   -4.4190 O   0  0
   -1.6462    1.6555    1.0579 O   0  0
    1.0234    1.7723    0.0261 O   0  0
   -3.6073    1.8058   -1.0724 O   0  0
    1.4201   -1.3330   -1.6232 O   0  0
  -10.8557    4.5913   -4.1967 Cl  0  0
   -7.4067    1.3212   -3.3135 H   0  0
   -8.5446    3.4499   -2.9441 H   0  0
   -8.1572   -2.3917   -6.2898 H   0  0
  -11.4059    2.4629   -6.0010 H   0  0
  -10.1785   -1.6675   -7.5556 H   0  0
   -4.3519    1.2532   -4.1253 H   0  0
   -1.2651    2.7167   -0.6332 H   0  0
   -0.0090    0.0046    0.0081 H   0  0
   -2.7235    0.0257   -0.5842 H   0  0
    0.3783    1.6808   -2.5545 H   0  0
   -2.0014    1.6030   -3.1508 H   0  0
   -3.5478    2.0388    3.1464 H   0  0
   -2.6528    3.5689    3.4443 H   0  0
   -1.7952    2.0148    3.4299 H   0  0
    3.6874    2.0327    1.0150 H   0  0
    2.9005    2.0526    2.6311 H   0  0
    2.4059    3.2073    1.3769 H   0  0
   -5.7796    2.9373    0.3886 H   0  0
   -6.7833    1.7652   -0.5334 H   0  0
   -5.7235    2.9059   -1.3858 H   0  0
    2.5560   -3.3790    0.0238 H   0  0
    2.7143   -4.2910   -1.5171 H   0  0
    1.1378   -3.6530   -1.0089 H   0  0
   -5.8706   -0.5485   -6.0730 H   0  0
   -5.8919   -2.2427   -5.5576 H   0  0
    2.4038    0.4536   -1.8552 H   0  0
    1.6938   -0.2374   -3.3374 H   0  0
  1  2  2  0
  1  7  1  0
  2 10  1  0
  3  5  2  0
  3  9  1  0
  4  8  1  0
  4 10  2  0
  5 27  1  0
  6 11  2  0
  6 30  1  0
  7  8  1  0
  7  9  2  0
  8 27  2  0
  9 36  1  0
 10 41  1  0
 11 25  1  0
 11 28  1  0
 12 21  1  0
 12 31  2  0
 12 37  1  0
 13 22  1  0
 13 32  2  0
 13 38  1  0
 14 23  1  0
 14 33  2  0
 14 39  1  0
 15 24  1  0
 15 34  2  0
 15 40  1  0
 16 17  1  0
 16 18  1  0
 16 37  1  0
 17 19  1  0
 17 38  1  0
 18 20  1  0
 18 39  1  0
 19 26  1  0
 19 35  1  0
 20 30  1  0
 20 35  1  0
 25 36  1  0
 26 40  1  0
 28 29  2  0
 29 30  1  0
  1 42  1  0
  2 43  1  0
  3 44  1  0
  4 45  1  0
  5 46  1  0
  6 47  1  0
 16 48  1  0
 17 49  1  0
 18 50  1  0
 19 51  1  0
 20 52  1  0
 21 53  1  0
 21 54  1  0
 21 55  1  0
 22 56  1  0
 22 57  1  0
 22 58  1  0
 23 59  1  0
 23 60  1  0
 23 61  1  0
 24 62  1  0
 24 63  1  0
 24 64  1  0
 25 65  1  0
 25 66  1  0
 26 67  1  0
 26 68  1  0
M  END
> <Name>
BR020099

$$$$
BR020100
  SciTegic05062102053D

 68 71  0  0  1  0            999 V2000
   -0.6583   -5.1248    0.5669 C   0  0
   -0.8943   -4.7687    1.8916 C   0  0
   -2.5291   -6.5307   -2.3148 C   0  0
   -3.1944   -5.4561    1.6441 C   0  0
   -3.7574   -6.6613   -1.6992 C   0  0
    0.0721   -2.8196   -2.0273 C   0  0
   -1.6948   -5.6491   -0.2239 C   0  0
   -2.9865   -5.8203    0.3166 C   0  0
   -1.4849   -6.0158   -1.5601 C   0  0
   -2.1641   -4.9347    2.4306 C   0  0
   -0.5444   -3.6497   -2.9294 C   0  0
   -1.6248    1.7068    2.8469 C   0  0
    1.8866   -0.0401    2.8536 C   0  0
   -3.3955   -1.0213    0.7313 C   0  0
    4.6138    2.2690    0.3429 C   0  0
   -0.7929    0.6870    0.8843 C   0  0  1  0  0  0
    0.7287    0.8020    0.9738 C   0  0  2  0  0  0
   -1.2067   -0.5004    0.0093 C   0  0  2  0  0  0
    1.3312    0.8384   -0.4336 C   0  0  1  0  0  0
   -0.4671   -0.4547   -1.3398 C   0  0  2  0  0  0
   -2.1817    1.4018    4.2044 C   0  0
    2.3526   -1.3118    3.4952 C   0  0
   -4.8409   -0.8488    0.3748 C   0  0
    4.8952    3.5445    1.0778 C   0  0
   -0.2014   -5.0283   -3.3018 C   0  0
    2.8541    0.8927   -0.4270 C   0  0
   -4.0017   -6.3198   -0.4133 N   0  0
   -1.6091   -3.0044   -3.4946 N   0  0
   -1.6746   -1.7864   -2.9680 N   0  0
   -0.6656   -1.6776   -2.0886 N   0  0
   -1.4652    2.8386    2.4102 O   0  0
    2.0790    1.0739    3.3217 O   0  0
   -3.0011   -1.6213    1.7220 O   0  0
    5.4807    1.5284   -0.1010 O   0  0
    0.9485   -0.3364   -1.1579 O   0  0
   -0.2620   -5.8806   -2.1550 O   0  0
   -1.3330    0.5423    2.1952 O   0  0
    1.2300   -0.3269    1.6927 O   0  0
   -2.6145   -0.4130   -0.2086 O   0  0
    3.2620    2.0688    0.2488 O   0  0
   -2.4697   -4.4953    4.0664 Cl  0  0
    0.3427   -4.9866    0.1654 H   0  0
   -0.0814   -4.3635    2.4881 H   0  0
   -2.3918   -6.8226   -3.3499 H   0  0
   -4.1864   -5.5823    2.0764 H   0  0
   -4.6104   -7.0590   -2.2389 H   0  0
    0.9282   -2.9356   -1.3778 H   0  0
   -1.2076    1.6150    0.4705 H   0  0
    0.9985    1.6963    1.5473 H   0  0
   -1.0120   -1.4394    0.5426 H   0  0
    0.9582    1.7176   -0.9748 H   0  0
   -0.8345    0.3504   -1.9860 H   0  0
   -3.2690    1.3083    4.1468 H   0  0
   -1.8993    2.1900    4.9069 H   0  0
   -1.7687    0.4538    4.5612 H   0  0
    1.5816   -1.6906    4.1706 H   0  0
    3.2856   -1.1343    4.0360 H   0  0
    2.5370   -2.0622    2.7209 H   0  0
   -5.2277    0.0677    0.8273 H   0  0
   -5.4126   -1.7167    0.7130 H   0  0
   -4.9395   -0.7695   -0.7117 H   0  0
    4.9500    4.3757    0.3705 H   0  0
    5.8297    3.4520    1.6370 H   0  0
    4.0847    3.7417    1.7854 H   0  0
   -0.8875   -5.4443   -4.0646 H   0  0
    0.8179   -5.1070   -3.7265 H   0  0
    3.2316    0.9170   -1.4499 H   0  0
    3.2571    0.0221    0.0918 H   0  0
  1  2  2  0
  1  7  1  0
  2 10  1  0
  3  5  2  0
  3  9  1  0
  4  8  1  0
  4 10  2  0
  5 27  1  0
  6 11  2  0
  6 30  1  0
  7  8  1  0
  7  9  2  0
  8 27  2  0
  9 36  1  0
 10 41  1  0
 11 25  1  0
 11 28  1  0
 12 21  1  0
 12 31  2  0
 12 37  1  0
 13 22  1  0
 13 32  2  0
 13 38  1  0
 14 23  1  0
 14 33  2  0
 14 39  1  0
 15 24  1  0
 15 34  2  0
 15 40  1  0
 16 17  1  0
 16 18  1  0
 16 37  1  0
 17 19  1  0
 17 38  1  0
 18 20  1  0
 18 39  1  0
 19 26  1  0
 19 35  1  0
 20 30  1  0
 20 35  1  0
 25 36  1  0
 26 40  1  0
 28 29  2  0
 29 30  1  0
  1 42  1  0
  2 43  1  0
  3 44  1  0
  4 45  1  0
  5 46  1  0
  6 47  1  0
 16 48  1  0
 17 49  1  0
 18 50  1  0
 19 51  1  0
 20 52  1  0
 21 53  1  0
 21 54  1  0
 21 55  1  0
 22 56  1  0
 22 57  1  0
 22 58  1  0
 23 59  1  0
 23 60  1  0
 23 61  1  0
 24 62  1  0
 24 63  1  0
 24 64  1  0
 25 65  1  0
 25 66  1  0
 26 67  1  0
 26 68  1  0
M  END
> <Name>
BR020100

$$$$
BR020101
  SciTegic05062102053D

 69 72  0  0  1  0            999 V2000
    3.2178    1.0876   -6.4729 C   0  0
    2.5650    0.3936   -7.4876 C   0  0
    6.6890    1.9276   -5.4602 C   0  0
    4.7038   -0.1354   -8.4724 C   0  0
    7.3481    1.2909   -6.4923 C   0  0
    2.9069    1.1476   -1.8087 C   0  0
    4.6204    1.1712   -6.4571 C   0  0
    5.3825    0.5522   -7.4700 C   0  0
    5.3032    1.8633   -5.4477 C   0  0
    3.3093   -0.2185   -8.4884 C   0  0
    3.7361    2.1447   -2.2574 C   0  0
   -0.5382    1.1857   -3.6280 C   0  0
   -3.0936   -1.5031   -1.0678 C   0  0
   -1.6435   -2.9522    1.5664 C   0  0
    2.6450   -2.7448    2.8440 C   0  0
   -0.0767    0.4533   -1.2971 C   0  0  2  0  0  0
   -1.1372   -0.3085   -0.4937 C   0  0  2  0  0  0
   -0.5108   -1.0827    0.6686 C   0  0  1  0  0  0
    0.4069   -0.1764    1.4933 C   0  0  1  0  0  0
    0.8466    1.2561   -0.3616 C   0  0  2  0  0  0
   -1.2885    2.1903   -4.4380 C   0  0
   -3.6441   -2.4827   -2.0594 C   0  0
   -2.7933   -3.3397    2.4461 C   0  0
    3.4155   -3.7717    2.0708 C   0  0
    4.9305    2.0422   -3.1057 C   0  0
    1.1390   -0.9415    2.5911 C   0  0
    6.7275    0.6129   -7.4848 N   0  0
    3.2941    3.3529   -1.7945 N   0  0
    2.2057    3.1368   -1.0639 N   0  0
    1.9754    1.8139   -1.0735 N   0  0
   -0.7108    1.3223   -2.2646 N   0  0
    0.1485    0.3438   -4.1948 O   0  0
   -3.7380   -1.0307   -0.1412 O   0  0
   -0.8985   -3.7541    1.0195 O   0  0
    2.6741   -2.6408    4.0628 O   0  0
    1.4016    0.4061    0.6489 O   0  0
    4.6356    2.4883   -4.4320 O   0  0
   -1.7895   -1.2347   -1.3653 O   0  0
   -1.5670   -1.5911    1.4793 O   0  0
    1.9185   -1.9588    1.9889 O   0  0
    2.5140   -1.0771   -9.7505 Cl  0  0
    2.6160    1.5591   -5.6997 H   0  0
    1.4797    0.3403   -7.4847 H   0  0
    7.2402    2.4558   -4.6903 H   0  0
    5.2780   -0.6190   -9.2619 H   0  0
    8.4312    1.3061   -6.5537 H   0  0
    2.8973    0.0751   -1.9422 H   0  0
    0.5145   -0.2657   -1.8797 H   0  0
   -1.9091    0.3784   -0.1228 H   0  0
    0.0445   -1.9400    0.2665 H   0  0
   -0.1722    0.6234    1.9731 H   0  0
    0.3340    2.1045    0.1061 H   0  0
   -0.6996    3.1020   -4.6278 H   0  0
   -1.5618    1.8075   -5.4344 H   0  0
   -2.2333    2.5428   -3.9941 H   0  0
   -4.0775   -1.9477   -2.9079 H   0  0
   -4.3945   -3.1153   -1.5785 H   0  0
   -2.8349   -3.1209   -2.4262 H   0  0
   -2.4571   -3.4176    3.4829 H   0  0
   -3.2174   -4.2878    2.1060 H   0  0
   -3.5694   -2.5710    2.3880 H   0  0
    2.8139   -4.6764    1.9539 H   0  0
    4.3535   -3.9962    2.5848 H   0  0
    3.6491   -3.3776    1.0775 H   0  0
    5.7729    2.6526   -2.7268 H   0  0
    5.3077    1.0037   -3.1756 H   0  0
    0.4189   -1.3952    3.2723 H   0  0
    1.7926   -0.2662    3.1434 H   0  0
   -1.3106    2.0673   -1.9254 H   0  0
  1  2  2  0
  1  7  1  0
  2 10  1  0
  3  5  2  0
  3  9  1  0
  4  8  1  0
  4 10  2  0
  5 27  1  0
  6 11  2  0
  6 30  1  0
  7  8  1  0
  7  9  2  0
  8 27  2  0
  9 37  1  0
 10 41  1  0
 11 25  1  0
 11 28  1  0
 12 21  1  0
 12 31  1  0
 12 32  2  0
 13 22  1  0
 13 33  2  0
 13 38  1  0
 14 23  1  0
 14 34  2  0
 14 39  1  0
 15 24  1  0
 15 35  2  0
 15 40  1  0
 16 17  1  0
 16 20  1  0
 16 31  1  0
 17 18  1  0
 17 38  1  0
 18 19  1  0
 18 39  1  0
 19 26  1  0
 19 36  1  0
 20 30  1  0
 20 36  1  0
 25 37  1  0
 26 40  1  0
 28 29  2  0
 29 30  1  0
  1 42  1  0
  2 43  1  0
  3 44  1  0
  4 45  1  0
  5 46  1  0
  6 47  1  0
 16 48  1  0
 17 49  1  0
 18 50  1  0
 19 51  1  0
 20 52  1  0
 21 53  1  0
 21 54  1  0
 21 55  1  0
 22 56  1  0
 22 57  1  0
 22 58  1  0
 23 59  1  0
 23 60  1  0
 23 61  1  0
 24 62  1  0
 24 63  1  0
 24 64  1  0
 25 65  1  0
 25 66  1  0
 26 67  1  0
 26 68  1  0
 31 69  1  0
M  END
> <Name>
BR020101

$$$$
BR020102
  SciTegic05062102053D

 34 35  0  0  0  0            999 V2000
    0.7171    6.8736    7.2075 C   0  0
   -0.1997    7.1430    6.4808 C   0  0
   -1.1173    2.6906    1.7587 C   0  0
   -0.2520    1.8768    1.0244 C   0  0
   -4.6100    2.5651    3.0369 C   0  0
   -1.9700    0.1860    0.8482 C   0  0
   -4.9682    1.3162    2.5572 C   0  0
   -2.4223    2.2616    2.0475 C   0  0
   -2.8420    0.9954    1.5829 C   0  0
   -3.3285    3.0402    2.7800 C   0  0
   -0.6774    0.6287    0.5708 C   0  0
   -1.3137    7.4761    5.5967 C   0  0
   -3.8808    5.1311    4.0245 C   0  0
   -3.2336    6.4608    4.3631 C   0  0
   -4.0932    0.5811    1.8583 N   0  3
   -2.9770    4.3176    3.2761 N   0  0
   -2.0402    6.2345    5.2154 N   0  3
    0.3964   -0.3673   -0.3336 Cl  0  0
    1.5303    6.6341    7.8520 H   0  0
   -0.7499    3.6571    2.0951 H   0  0
    0.7543    2.2306    0.8138 H   0  0
   -5.3265    3.1531    3.6023 H   0  0
   -2.3049   -0.7870    0.4958 H   0  0
   -5.9418    0.8713    2.7111 H   0  0
   -0.9735    7.9400    4.6670 H   0  0
   -2.0418    8.1299    6.0843 H   0  0
   -4.1768    4.5904    4.9296 H   0  0
   -4.7768    5.2940    3.4170 H   0  0
   -3.9116    7.0986    4.9372 H   0  0
   -2.8901    6.9961    3.4728 H   0  0
   -4.3965   -0.3335    1.5227 H   0  0
   -2.0502    4.6382    3.0773 H   0  0
   -1.3892    5.6019    4.7280 H   0  0
   -2.3230    5.7358    6.0715 H   0  0
  1  2  3  0
  2 12  1  0
  3  4  1  0
  3  8  2  0
  4 11  2  0
  5  7  1  0
  5 10  2  0
  6  9  2  0
  6 11  1  0
  7 15  2  0
  8  9  1  0
  8 10  1  0
  9 15  1  0
 10 16  1  0
 11 18  1  0
 12 17  1  0
 13 14  1  0
 13 16  1  0
 14 17  1  0
  1 19  1  0
  3 20  1  0
  4 21  1  0
  5 22  1  0
  6 23  1  0
  7 24  1  0
 12 25  1  0
 12 26  1  0
 13 27  1  0
 13 28  1  0
 14 29  1  0
 14 30  1  0
 15 31  1  0
 16 32  1  0
 17 33  1  0
 17 34  1  0
M  CHG  2  15   1  17   1
M  END
> <Name>
BR020102

$$$$
BR020103
  SciTegic05062102053D

 19 20  0  0  0  0            999 V2000
   -0.5812    3.2417   -0.8037 C   0  0
    0.1298    2.0977   -0.4527 C   0  0
   -4.0902    4.2376   -1.4936 C   0  0
   -1.9323    0.8440   -0.4461 C   0  0
   -4.6804    3.0058   -1.2959 C   0  0
   -1.9747    3.1875   -0.9770 C   0  0
   -2.6683    1.9725   -0.7968 C   0  0
   -2.7151    4.3237   -1.3301 C   0  0
   -0.5469    0.8976   -0.2738 C   0  0
   -1.9824    6.8765    0.4690 N   0  5
   -4.0027    1.8858   -0.9548 N   0  0
   -2.1041    5.5707   -1.5292 N   0  0
   -2.0429    6.2489   -0.4823 N   0  3
    0.3215   -0.5237    0.1601 Cl  0  0
   -0.0284    4.1684   -0.9383 H   0  0
    1.2070    2.1581   -0.3231 H   0  0
   -4.6880    5.1005   -1.7663 H   0  0
   -2.4531   -0.1023   -0.3034 H   0  0
   -5.7521    2.8784   -1.4078 H   0  0
  1  2  1  0
  1  6  2  0
  2  9  2  0
  3  5  1  0
  3  8  2  0
  4  7  2  0
  4  9  1  0
  5 11  2  0
  6  7  1  0
  6  8  1  0
  7 11  1  0
  8 12  1  0
  9 14  1  0
 10 13  2  0
 12 13  2  0
  1 15  1  0
  2 16  1  0
  3 17  1  0
  4 18  1  0
  5 19  1  0
M  CHG  2  10  -1  13   1
M  END
> <Name>
BR020103

$$$$
BR020104
  SciTegic05062102053D

 27 29  0  0  0  0            999 V2000
   -0.5812    3.2417   -0.8037 C   0  0
    0.1298    2.0977   -0.4527 C   0  0
   -4.0902    4.2376   -1.4936 C   0  0
   -1.9323    0.8440   -0.4461 C   0  0
   -4.6804    3.0058   -1.2959 C   0  0
   -2.3799    6.7106   -0.8478 C   0  0
   -1.9747    3.1875   -0.9770 C   0  0
   -2.6683    1.9725   -0.7968 C   0  0
   -2.7151    4.3237   -1.3301 C   0  0
   -0.5469    0.8976   -0.2738 C   0  0
   -1.5358    7.6251   -1.4260 C   0  0
   -1.3596    9.0491   -1.1136 C   0  0
   -4.0027    1.8858   -0.9548 N   0  0
   -0.8093    7.0197   -2.4135 N   0  0
   -1.1791    5.7449   -2.4691 N   0  0
   -2.1209    5.5616   -1.5297 N   0  0
   -0.1413    9.2509   -0.3923 O   0  0
    0.3214   -0.5239    0.1592 Cl  0  0
   -0.0238    4.1657   -0.9368 H   0  0
    1.2072    2.1582   -0.3238 H   0  0
   -4.6932    5.0973   -1.7672 H   0  0
   -2.4536   -0.1021   -0.3035 H   0  0
   -5.7518    2.8777   -1.4101 H   0  0
   -3.1066    6.7793   -0.0496 H   0  0
   -1.3189    9.6805   -2.0222 H   0  0
   -2.1868    9.4488   -0.4959 H   0  0
   -0.0837   10.2016   -0.2177 H   0  0
  1  2  1  0
  1  7  2  0
  2 10  2  0
  3  5  1  0
  3  9  2  0
  4  8  2  0
  4 10  1  0
  5 13  2  0
  6 11  2  0
  6 16  1  0
  7  8  1  0
  7  9  1  0
  8 13  1  0
  9 16  1  0
 10 18  1  0
 11 12  1  0
 11 14  1  0
 12 17  1  0
 14 15  2  0
 15 16  1  0
  1 19  1  0
  2 20  1  0
  3 21  1  0
  4 22  1  0
  5 23  1  0
  6 24  1  0
 12 25  1  0
 12 26  1  0
 17 27  1  0
M  END
> <Name>
BR020104

$$$$
BR020105
  SciTegic05062102053D

 30 32  0  0  0  0            999 V2000
   -0.5812    3.2417   -0.8037 C   0  0
    0.1298    2.0977   -0.4527 C   0  0
   -4.0902    4.2376   -1.4936 C   0  0
   -1.9323    0.8440   -0.4461 C   0  0
   -4.6804    3.0058   -1.2959 C   0  0
   -2.3799    6.7106   -0.8478 C   0  0
   -1.9747    3.1875   -0.9770 C   0  0
   -2.6683    1.9725   -0.7968 C   0  0
   -2.7151    4.3237   -1.3301 C   0  0
   -0.5469    0.8976   -0.2738 C   0  0
   -1.5358    7.6251   -1.4260 C   0  0
   -1.3596    9.0491   -1.1136 C   0  0
   -0.2870    9.3267   -0.0450 C   0  0
   -4.0027    1.8858   -0.9548 N   0  0
   -0.8093    7.0197   -2.4135 N   0  0
   -1.1791    5.7449   -2.4691 N   0  0
   -2.1209    5.5616   -1.5297 N   0  0
    0.9737    8.8617   -0.5100 O   0  0
    0.3214   -0.5239    0.1592 Cl  0  0
   -0.0238    4.1657   -0.9368 H   0  0
    1.2072    2.1582   -0.3238 H   0  0
   -4.6932    5.0973   -1.7672 H   0  0
   -2.4536   -0.1021   -0.3035 H   0  0
   -5.7518    2.8777   -1.4101 H   0  0
   -3.1066    6.7793   -0.0496 H   0  0
   -1.0976    9.6295   -2.0220 H   0  0
   -2.3102    9.4920   -0.7536 H   0  0
   -0.1974   10.4005    0.1486 H   0  0
   -0.5262    8.8183    0.8948 H   0  0
    1.6182    9.0550    0.1897 H   0  0
  1  2  1  0
  1  7  2  0
  2 10  2  0
  3  5  1  0
  3  9  2  0
  4  8  2  0
  4 10  1  0
  5 14  2  0
  6 11  2  0
  6 17  1  0
  7  8  1  0
  7  9  1  0
  8 14  1  0
  9 17  1  0
 10 19  1  0
 11 12  1  0
 11 15  1  0
 12 13  1  0
 13 18  1  0
 15 16  2  0
 16 17  1  0
  1 20  1  0
  2 21  1  0
  3 22  1  0
  4 23  1  0
  5 24  1  0
  6 25  1  0
 12 26  1  0
 12 27  1  0
 13 28  1  0
 13 29  1  0
 18 30  1  0
M  END
> <Name>
BR020105

$$$$
BR020106
  SciTegic05062102053D

 21 22  0  0  0  0            999 V2000
    1.8851   -1.0363   -0.1124 C   0  0
    2.8783   -1.6520    2.0022 C   0  0
    0.8066   -0.4630    0.5610 C   0  0
    1.7997   -1.0786    2.6757 C   0  0
    4.3698   -2.3633   -1.4156 C   0  0
    5.6090   -3.0466   -1.4399 C   0  0
    2.9210   -1.6309    0.6081 C   0  0
    0.7638   -0.4841    1.9551 C   0  0
    4.0369   -2.2232   -0.0884 C   0  0
    5.9451   -3.2751   -0.1258 C   0  0
    7.0714   -3.9162    0.4622 C   0  0
    7.2424   -4.0504    1.6947 O   0  0
    4.9920   -2.7762    0.7043 O   0  0
   -0.6957    0.2956    2.8680 Br  0  0
    1.9036   -1.0118   -1.1995 H   0  0
    3.6783   -2.1112    2.5781 H   0  0
    0.0075   -0.0035   -0.0152 H   0  0
    1.7823   -1.1026    3.7623 H   0  0
    3.7943   -2.0191   -2.2632 H   0  0
    6.1819   -3.3355   -2.3098 H   0  0
    7.8705   -4.3354   -0.2120 H   0  0
  1  3  1  0
  1  7  2  0
  2  4  2  0
  2  7  1  0
  3  8  2  0
  4  8  1  0
  5  6  1  0
  5  9  2  0
  6 10  2  0
  7  9  1  0
  8 14  1  0
  9 13  1  0
 10 11  1  0
 10 13  1  0
 11 12  2  0
  1 15  1  0
  2 16  1  0
  3 17  1  0
  4 18  1  0
  5 19  1  0
  6 20  1  0
 11 21  1  0
M  END
> <Name>
BR020106

$$$$
BR020107
  SciTegic05062102053D

 21 22  0  0  0  0            999 V2000
    1.8851   -1.0363   -0.1124 C   0  0
    2.8783   -1.6520    2.0022 C   0  0
    0.8066   -0.4630    0.5610 C   0  0
    1.7997   -1.0786    2.6757 C   0  0
    4.3699   -2.3633   -1.4156 C   0  0
    5.6088   -3.0473   -1.4398 C   0  0
    2.9210   -1.6309    0.6081 C   0  0
    0.7638   -0.4841    1.9551 C   0  0
    4.0369   -2.2232   -0.0884 C   0  0
    5.9446   -3.2761   -0.1257 C   0  0
    7.2113   -3.9927    0.3470 C   0  0
    7.3561   -4.1131    1.5937 O   0  5
    7.9962   -4.3978   -0.5528 O   0  0
    4.9916   -2.7767    0.7044 O   0  0
   -0.6957    0.2956    2.8680 Br  0  0
    1.9036   -1.0118   -1.1995 H   0  0
    3.6783   -2.1112    2.5781 H   0  0
    0.0075   -0.0035   -0.0152 H   0  0
    1.7823   -1.1026    3.7623 H   0  0
    3.7943   -2.0196   -2.2635 H   0  0
    6.1806   -3.3363   -2.3103 H   0  0
  1  3  1  0
  1  7  2  0
  2  4  2  0
  2  7  1  0
  3  8  2  0
  4  8  1  0
  5  6  1  0
  5  9  2  0
  6 10  2  0
  7  9  1  0
  8 15  1  0
  9 14  1  0
 10 11  1  0
 10 14  1  0
 11 12  1  0
 11 13  2  0
  1 16  1  0
  2 17  1  0
  3 18  1  0
  4 19  1  0
  5 20  1  0
  6 21  1  0
M  CHG  1  12  -1
M  END
> <Name>
BR020107

$$$$
BR020108
  SciTegic05062102053D

 32 34  0  0  0  0            999 V2000
   -4.9639   -0.4930   -9.4160 C   0  0
   -4.6017   -2.1170   -7.6643 C   0  0
   -5.1743   -1.5256  -10.3298 C   0  0
   -4.8121   -3.1496   -8.5781 C   0  0
   -4.4665    1.6466   -7.2334 C   0  0
   -4.1780    2.1274   -5.9339 C   0  0
   -4.6775   -0.7887   -8.0833 C   0  0
   -5.0985   -2.8539   -9.9109 C   0  0
   -4.4617    0.2741   -7.1427 C   0  0
   -4.0177    1.0145   -5.1416 C   0  0
   -1.9782    1.9373   -1.2983 C   0  0
   -4.2341    2.0464   -0.8001 C   0  0
   -3.7044    0.8711   -3.6971 C   0  0
   -2.0546    1.8137    0.1995 C   0  0
   -3.5471    1.8858    0.5291 C   0  0
   -3.2595    2.0018   -1.7456 N   0  0
   -0.9429    1.9602   -1.9456 O   0  0
   -5.4387    2.1773   -0.9527 O   0  0
   -3.5951   -0.2109   -3.1407 O   0  0
   -4.1890   -0.1193   -5.8709 O   0  0
   -3.5524    2.0911   -3.0928 O   0  0
   -5.3869   -4.2533  -11.1480 Br  0  0
   -5.0264    0.5374   -9.7583 H   0  0
   -4.3798   -2.3637   -6.6287 H   0  0
   -5.3968   -1.2784  -11.3648 H   0  0
   -4.7505   -4.1793   -8.2352 H   0  0
   -4.6528    2.2320   -8.1226 H   0  0
   -4.0971    3.1581   -5.6188 H   0  0
   -1.6235    0.8592    0.5151 H   0  0
   -1.5047    2.6352    0.6679 H   0  0
   -3.7711    2.7447    1.1684 H   0  0
   -3.8915    0.9688    1.0159 H   0  0
  1  3  1  0
  1  7  2  0
  2  4  2  0
  2  7  1  0
  3  8  2  0
  4  8  1  0
  5  6  1  0
  5  9  2  0
  6 10  2  0
  7  9  1  0
  8 22  1  0
  9 20  1  0
 10 13  1  0
 10 20  1  0
 11 14  1  0
 11 16  1  0
 11 17  2  0
 12 15  1  0
 12 16  1  0
 12 18  2  0
 13 19  2  0
 13 21  1  0
 14 15  1  0
 16 21  1  0
  1 23  1  0
  2 24  1  0
  3 25  1  0
  4 26  1  0
  5 27  1  0
  6 28  1  0
 14 29  1  0
 14 30  1  0
 15 31  1  0
 15 32  1  0
M  END
> <Name>
BR020108

$$$$
BR020109
  SciTegic05062102053D

 30 31  0  0  0  0            999 V2000
    2.8194   -0.2434    0.7100 C   0  0
    1.9441   -2.4456    1.1805 C   0  0
    1.7409    0.3293    1.3841 C   0  0
    0.8656   -1.8728    1.8546 C   0  0
    5.1347   -1.7141   -0.7423 C   0  0
    5.8617   -2.8314   -1.2182 C   0  0
    2.9210   -1.6309    0.6081 C   0  0
    0.7640   -0.4854    1.9564 C   0  0
    4.0369   -2.2232   -0.0884 C   0  0
    5.1563   -3.9435   -0.8211 C   0  0
    5.4001   -5.3327   -1.0107 C   0  0
    4.5900   -7.6898   -0.5604 C   0  0
    3.9026   -8.1804   -1.8216 C   0  0
    4.4708   -6.2522   -0.4714 N   0  0
    6.4205   -5.7490   -1.6212 O   0  0
    4.0427   -3.5813   -0.1318 O   0  0
    2.5202   -7.8524   -1.7641 O   0  0
   -0.6956    0.2902    2.8728 Br  0  0
    3.5727    0.4054    0.2692 H   0  0
    2.0094   -3.5287    1.1100 H   0  0
    1.6766    1.4122    1.4548 H   0  0
    0.1135   -2.5219    2.2959 H   0  0
    5.3838   -0.6696   -0.8645 H   0  0
    6.7842   -2.8222   -1.7813 H   0  0
    4.1367   -8.1276    0.3345 H   0  0
    5.6542   -7.9431   -0.5835 H   0  0
    3.9887   -9.2689   -1.8960 H   0  0
    4.3354   -7.7259   -2.7187 H   0  0
    3.6938   -5.8861    0.0689 H   0  0
    2.1204   -8.1820   -2.5849 H   0  0
  1  3  1  0
  1  7  2  0
  2  4  2  0
  2  7  1  0
  3  8  2  0
  4  8  1  0
  5  6  1  0
  5  9  2  0
  6 10  2  0
  7  9  1  0
  8 18  1  0
  9 16  1  0
 10 11  1  0
 10 16  1  0
 11 14  1  0
 11 15  2  0
 12 13  1  0
 12 14  1  0
 13 17  1  0
  1 19  1  0
  2 20  1  0
  3 21  1  0
  4 22  1  0
  5 23  1  0
  6 24  1  0
 12 25  1  0
 12 26  1  0
 13 27  1  0
 13 28  1  0
 14 29  1  0
 17 30  1  0
M  END
> <Name>
BR020109

$$$$
BR020110
  SciTegic05062102053D

 33 34  0  0  0  0            999 V2000
    3.4121   -5.5340   -6.8529 C   0  0
    1.6799   -6.7626   -5.7010 C   0  0
    3.6724   -6.6485   -7.6503 C   0  0
    1.9401   -7.8771   -6.4984 C   0  0
    2.6778   -3.1768   -4.9838 C   0  0
    1.9700   -2.5143   -3.9527 C   0  0
    2.4159   -5.5911   -5.8782 C   0  0
    2.9364   -7.8200   -7.4730 C   0  0
    2.1476   -4.4438   -5.0581 C   0  0
    1.0574   -3.4236   -3.4706 C   0  0
    0.0383   -3.3203   -2.3945 C   0  0
   -3.1250   -4.0869   -1.7357 C   0  0
   -1.7708   -4.5048   -1.1781 C   0  0
   -3.6000   -4.9868   -2.8701 C   0  0
   -0.7292   -4.4567   -2.1675 N   0  0
   -0.0883   -2.2599   -1.7879 O   0  0
    1.1592   -4.6023   -4.1391 O   0  0
   -4.8565   -4.5119   -3.3351 O   0  0
    3.2864   -9.3292   -8.5555 Br  0  0
    3.9947   -4.6281   -7.0034 H   0  0
    0.8997   -6.8226   -4.9458 H   0  0
    4.4519   -6.5877   -8.4055 H   0  0
    1.3568   -8.7820   -6.3482 H   0  0
    3.4755   -2.7764   -5.5932 H   0  0
    2.1115   -1.5002   -3.6067 H   0  0
   -3.8700   -4.1069   -0.9305 H   0  0
   -3.0907   -3.0476   -2.0865 H   0  0
   -1.4732   -3.8310   -0.3687 H   0  0
   -1.8068   -5.5237   -0.7793 H   0  0
   -2.8958   -4.9749   -3.7077 H   0  0
   -3.7250   -6.0176   -2.5236 H   0  0
   -0.6040   -5.2772   -2.7575 H   0  0
   -5.1308   -5.1037   -4.0542 H   0  0
  1  3  1  0
  1  7  2  0
  2  4  2  0
  2  7  1  0
  3  8  2  0
  4  8  1  0
  5  6  1  0
  5  9  2  0
  6 10  2  0
  7  9  1  0
  8 19  1  0
  9 17  1  0
 10 11  1  0
 10 17  1  0
 11 15  1  0
 11 16  2  0
 12 13  1  0
 12 14  1  0
 13 15  1  0
 14 18  1  0
  1 20  1  0
  2 21  1  0
  3 22  1  0
  4 23  1  0
  5 24  1  0
  6 25  1  0
 12 26  1  0
 12 27  1  0
 13 28  1  0
 13 29  1  0
 14 30  1  0
 14 31  1  0
 15 32  1  0
 18 33  1  0
M  END
> <Name>
BR020110

$$$$
BR020111
  SciTegic05062102053D

 39 40  0  0  0  0            999 V2000
    4.6222   -1.9793   -6.0483 C   0  0
    3.8027   -0.5415   -4.2881 C   0  0
    5.5876   -1.0274   -6.3763 C   0  0
    4.7681    0.4103   -4.6161 C   0  0
    2.4111   -3.9576   -5.1614 C   0  0
    1.3205   -4.4168   -4.3851 C   0  0
    3.7297   -1.7363   -5.0042 C   0  0
    5.6605    0.1674   -5.6602 C   0  0
    2.7367   -2.7163   -4.6662 C   0  0
    1.0574   -3.4236   -3.4706 C   0  0
    0.0383   -3.3203   -2.3945 C   0  0
    2.8126   -2.6875    4.5176 C   0  0
   -0.2983   -2.4042    0.7797 C   0  0
   -0.8481   -1.9134   -0.5531 C   0  0
    1.0013   -1.7127    1.1733 C   0  0
    0.0579   -2.1508   -1.6435 N   0  0
   -0.7375   -4.2546   -2.2112 O   0  0
    2.6305   -0.2936    3.4752 O   0  0
    3.9504   -2.0717    2.2422 O   0  0
    1.9163   -2.3836   -3.6352 O   0  0
    1.4447   -2.2445    2.4147 O   0  0
    2.8275   -1.6689    3.0644 S   0  0
    6.9706    1.4559   -6.1021 Br  0  0
    4.5782   -2.9057   -6.6162 H   0  0
    3.1144   -0.3377   -3.4712 H   0  0
    6.2758   -1.2321   -7.1925 H   0  0
    4.8122    1.3357   -4.0474 H   0  0
    2.8952   -4.4709   -5.9801 H   0  0
    0.7940   -5.3556   -4.4842 H   0  0
    2.9607   -3.7247    4.2126 H   0  0
    3.6212   -2.3628    5.1741 H   0  0
    1.8472   -2.5683    5.0117 H   0  0
   -1.0447   -2.2313    1.5650 H   0  0
   -0.1385   -3.4895    0.7519 H   0  0
   -1.7788   -2.4374   -0.7919 H   0  0
   -1.0586   -0.8397   -0.5206 H   0  0
    1.7833   -1.8828    0.4268 H   0  0
    0.8492   -0.6351    1.2916 H   0  0
    0.7752   -1.4496   -1.8189 H   0  0
  1  3  1  0
  1  7  2  0
  2  4  2  0
  2  7  1  0
  3  8  2  0
  4  8  1  0
  5  6  1  0
  5  9  2  0
  6 10  2  0
  7  9  1  0
  8 23  1  0
  9 20  1  0
 10 11  1  0
 10 20  1  0
 11 16  1  0
 11 17  2  0
 12 22  1  0
 13 14  1  0
 13 15  1  0
 14 16  1  0
 15 21  1  0
 18 22  2  0
 19 22  2  0
 21 22  1  0
  1 24  1  0
  2 25  1  0
  3 26  1  0
  4 27  1  0
  5 28  1  0
  6 29  1  0
 12 30  1  0
 12 31  1  0
 12 32  1  0
 13 33  1  0
 13 34  1  0
 14 35  1  0
 14 36  1  0
 15 37  1  0
 15 38  1  0
 16 39  1  0
M  END
> <Name>
BR020111

$$$$
BR020112
  SciTegic05062102053D

 34 35  0  0  0  0            999 V2000
   -3.3064    8.2230   -0.1724 C   0  0
   -2.7504    7.1114   -2.2442 C   0  0
   -3.1536    9.4613   -0.7958 C   0  0
   -2.5977    8.3498   -2.8676 C   0  0
   -3.5957    5.3798    1.0201 C   0  0
   -3.5797    3.9646    1.0114 C   0  0
   -3.1047    7.0479   -0.8966 C   0  0
   -2.7993    9.5248   -2.1434 C   0  0
   -3.2626    5.7734   -0.2551 C   0  0
   -3.2383    3.5943   -0.2686 C   0  0
   -3.0605    2.2580   -0.8930 C   0  0
   -3.8420    0.6096   -3.6284 C   0  0
   -4.4027    1.6711   -4.5692 C   0  0
   -2.5220    1.0403   -2.9866 C   0  0
   -4.1135    3.5618   -7.2586 N   0  5
   -3.4528    1.9267   -5.6531 N   0  0
   -3.8010    2.7802   -6.4888 N   0  3
   -2.7088    2.2709   -2.2260 N   0  0
   -3.2500    1.2500   -0.2173 O   0  0
   -3.0433    4.6910   -1.0468 O   0  0
   -2.5956   11.2025   -2.9894 Br  0  0
   -3.5828    8.1903    0.8789 H   0  0
   -2.5902    6.2044   -2.8223 H   0  0
   -3.3146   10.3677   -0.2175 H   0  0
   -2.3223    8.3817   -3.9187 H   0  0
   -3.8213    6.0277    1.8552 H   0  0
   -3.7906    3.3011    1.8381 H   0  0
   -4.5822    0.4161   -2.8417 H   0  0
   -3.7009   -0.3304   -4.1770 H   0  0
   -5.3445    1.3194   -5.0032 H   0  0
   -4.6073    2.6027   -4.0317 H   0  0
   -2.1452    0.2591   -2.3179 H   0  0
   -1.7657    1.2112   -3.7602 H   0  0
   -2.6292    3.1335   -2.7427 H   0  0
  1  3  1  0
  1  7  2  0
  2  4  2  0
  2  7  1  0
  3  8  2  0
  4  8  1  0
  5  6  1  0
  5  9  2  0
  6 10  2  0
  7  9  1  0
  8 21  1  0
  9 20  1  0
 10 11  1  0
 10 20  1  0
 11 18  1  0
 11 19  2  0
 12 13  1  0
 12 14  1  0
 13 16  1  0
 14 18  1  0
 15 17  2  0
 16 17  2  0
  1 22  1  0
  2 23  1  0
  3 24  1  0
  4 25  1  0
  5 26  1  0
  6 27  1  0
 12 28  1  0
 12 29  1  0
 13 30  1  0
 13 31  1  0
 14 32  1  0
 14 33  1  0
 18 34  1  0
M  CHG  2  15  -1  17   1
M  END
> <Name>
BR020112

$$$$
BR020113
  SciTegic05062102053D

 48 51  0  0  0  0            999 V2000
   -6.9365   -1.7147   -4.9378 C   0  0
   -6.1723   -0.5480   -4.9205 C   0  0
   -6.4848   -2.8544   -4.2723 C   0  0
   -4.9562   -0.5210   -4.2378 C   0  0
   -5.2687   -2.8273   -3.5896 C   0  0
    0.0587    4.5158   -8.3940 C   0  0
   -1.1690    2.7835   -7.2412 C   0  0
   -0.5630    4.1599   -9.5909 C   0  0
   -1.7908    2.4277   -8.4380 C   0  0
    1.3233    5.1478   -5.6389 C   0  0
    1.5446    4.9917   -4.2497 C   0  0
   -2.1740   -0.8617   -3.2042 C   0  0
   -4.5044   -1.6606   -3.5724 C   0  0
   -0.2442    3.8275   -7.2192 C   0  0
   -1.4878    3.1159   -9.6129 C   0  0
   -3.2595   -1.6333   -2.8736 C   0  0
    0.3952    4.1942   -5.9873 C   0  0
    0.7358    3.9541   -3.8482 C   0  0
    0.5269    3.3259   -2.5182 C   0  0
    0.2005    0.3890   -1.0062 C   0  0
    0.1031   -0.6611   -2.1146 C   0  0
   -0.7113    1.5849   -1.2566 C   0  0
   -2.9718   -2.3804   -1.7652 N   0  0
   -1.7294   -2.0944   -1.3914 N   0  0
   -1.2529   -1.1835   -2.2554 N   0  0
   -0.3841    2.2767   -2.4728 N   0  0
    1.1357    3.7639   -1.5455 O   0  0
    0.0318    3.4625   -4.9014 O   0  0
   -2.3330    2.6358  -11.2336 Br  0  0
   -7.8839   -1.7356   -5.4685 H   0  0
   -6.5244    0.3398   -5.4375 H   0  0
   -7.0807   -3.7622   -4.2849 H   0  0
   -4.3718    0.3962   -4.2336 H   0  0
   -4.9305   -3.7242   -3.0758 H   0  0
    0.7775    5.3318   -8.3934 H   0  0
   -1.4162    2.2378   -6.3337 H   0  0
   -0.3161    4.7063  -10.4976 H   0  0
   -2.5099    1.6125   -8.4378 H   0  0
    1.7863    5.8667   -6.2998 H   0  0
    2.2126    5.5659   -3.6234 H   0  0
   -1.9818   -0.1458   -3.9912 H   0  0
    1.2395    0.7274   -0.9052 H   0  0
   -0.0757   -0.0676   -0.0475 H   0  0
    0.7647   -1.5128   -1.9181 H   0  0
    0.3983   -0.2387   -3.0824 H   0  0
   -1.7606    1.2789   -1.3161 H   0  0
   -0.6130    2.3083   -0.4408 H   0  0
   -0.8947    2.0147   -3.3143 H   0  0
  1  2  2  0
  1  3  1  0
  2  4  1  0
  3  5  2  0
  4 13  2  0
  5 13  1  0
  6  8  1  0
  6 14  2  0
  7  9  2  0
  7 14  1  0
  8 15  2  0
  9 15  1  0
 10 11  1  0
 10 17  2  0
 11 18  2  0
 12 16  2  0
 12 25  1  0
 13 16  1  0
 14 17  1  0
 15 29  1  0
 16 23  1  0
 17 28  1  0
 18 19  1  0
 18 28  1  0
 19 26  1  0
 19 27  2  0
 20 21  1  0
 20 22  1  0
 21 25  1  0
 22 26  1  0
 23 24  2  0
 24 25  1  0
  1 30  1  0
  2 31  1  0
  3 32  1  0
  4 33  1  0
  5 34  1  0
  6 35  1  0
  7 36  1  0
  8 37  1  0
  9 38  1  0
 10 39  1  0
 11 40  1  0
 12 41  1  0
 20 42  1  0
 20 43  1  0
 21 44  1  0
 21 45  1  0
 22 46  1  0
 22 47  1  0
 26 48  1  0
M  END
> <Name>
BR020113

$$$$
BR020114
  SciTegic05062102053D

 21 22  0  0  0  0            999 V2000
    1.8851   -1.0363   -0.1124 C   0  0
    2.8783   -1.6520    2.0022 C   0  0
    0.8066   -0.4630    0.5610 C   0  0
    1.7997   -1.0786    2.6757 C   0  0
    4.3705   -2.3654   -1.4142 C   0  0
    5.6092   -3.0498   -1.4373 C   0  0
    2.9210   -1.6309    0.6081 C   0  0
    0.7638   -0.4841    1.9551 C   0  0
    4.0369   -2.2241   -0.0873 C   0  0
    5.9443   -3.2776   -0.1228 C   0  0
    7.2106   -3.9943    0.3511 C   0  0
    7.3547   -4.1137    1.5980 O   0  5
    7.9957   -4.4003   -0.5480 O   0  0
    4.9911   -2.7773    0.7064 O   0  0
   -0.5656    0.2251    2.7865 Cl  0  0
    1.9042   -1.0119   -1.1993 H   0  0
    3.6784   -2.1116    2.5779 H   0  0
    0.0061   -0.0035   -0.0136 H   0  0
    1.7793   -1.1029    3.7621 H   0  0
    3.7955   -2.0222   -2.2627 H   0  0
    6.1813   -3.3398   -2.3072 H   0  0
  1  3  1  0
  1  7  2  0
  2  4  2  0
  2  7  1  0
  3  8  2  0
  4  8  1  0
  5  6  1  0
  5  9  2  0
  6 10  2  0
  7  9  1  0
  8 15  1  0
  9 14  1  0
 10 11  1  0
 10 14  1  0
 11 12  1  0
 11 13  2  0
  1 16  1  0
  2 17  1  0
  3 18  1  0
  4 19  1  0
  5 20  1  0
  6 21  1  0
M  CHG  1  12  -1
M  END
> <Name>
BR020114

$$$$
BR020115
  SciTegic05062102053D

 28 29  0  0  0  0            999 V2000
    5.9388   -8.6574    1.5251 C   0  0
    5.3317   -8.2193    0.5865 C   0  0
    2.8194   -0.2434    0.7100 C   0  0
    1.9441   -2.4456    1.1805 C   0  0
    1.7409    0.3293    1.3841 C   0  0
    0.8656   -1.8728    1.8546 C   0  0
    5.1347   -1.7141   -0.7423 C   0  0
    5.8617   -2.8314   -1.2182 C   0  0
    2.9210   -1.6309    0.6081 C   0  0
    0.7640   -0.4854    1.9564 C   0  0
    4.0369   -2.2232   -0.0884 C   0  0
    5.1563   -3.9435   -0.8211 C   0  0
    5.4001   -5.3327   -1.0107 C   0  0
    4.5900   -7.6898   -0.5604 C   0  0
    4.4708   -6.2522   -0.4714 N   0  0
    6.4205   -5.7490   -1.6212 O   0  0
    4.0427   -3.5813   -0.1318 O   0  0
   -0.6956    0.2902    2.8728 Br  0  0
    6.4769   -9.0457    2.3580 H   0  0
    3.5727    0.4054    0.2692 H   0  0
    2.0094   -3.5287    1.1100 H   0  0
    1.6766    1.4122    1.4548 H   0  0
    0.1135   -2.5219    2.2959 H   0  0
    5.3838   -0.6696   -0.8645 H   0  0
    6.7842   -2.8222   -1.7813 H   0  0
    3.5888   -8.1299   -0.6020 H   0  0
    5.1021   -7.9511   -1.4919 H   0  0
    3.6938   -5.8861    0.0689 H   0  0
  1  2  3  0
  2 14  1  0
  3  5  1  0
  3  9  2  0
  4  6  2  0
  4  9  1  0
  5 10  2  0
  6 10  1  0
  7  8  1  0
  7 11  2  0
  8 12  2  0
  9 11  1  0
 10 18  1  0
 11 17  1  0
 12 13  1  0
 12 17  1  0
 13 15  1  0
 13 16  2  0
 14 15  1  0
  1 19  1  0
  3 20  1  0
  4 21  1  0
  5 22  1  0
  6 23  1  0
  7 24  1  0
  8 25  1  0
 14 26  1  0
 14 27  1  0
 15 28  1  0
M  END
> <Name>
BR020115

$$$$
BR020116
  SciTegic05062102053D

 28 29  0  0  0  0            999 V2000
    5.9275   -8.6624    1.5230 C   0  0
    5.3223   -8.2226    0.5840 C   0  0
    2.8203   -0.2435    0.7117 C   0  0
    1.9423   -2.4456    1.1774 C   0  0
    1.7408    0.3291    1.3844 C   0  0
    0.8629   -1.8730    1.8501 C   0  0
    5.1364   -1.7160   -0.7392 C   0  0
    5.8625   -2.8338   -1.2151 C   0  0
    2.9210   -1.6309    0.6081 C   0  0
    0.7622   -0.4856    1.9537 C   0  0
    4.0369   -2.2241   -0.0873 C   0  0
    5.1550   -3.9453   -0.8200 C   0  0
    5.3970   -5.3347   -1.0105 C   0  0
    4.5829   -7.6910   -0.5636 C   0  0
    4.4657   -6.2534   -0.4733 N   0  0
    6.4177   -5.7519   -1.6200 O   0  0
    4.0408   -3.5822   -0.1319 O   0  0
   -0.5686    0.2203    2.7857 Cl  0  0
    6.4639   -9.0522    2.3563 H   0  0
    3.5751    0.4048    0.2733 H   0  0
    2.0071   -3.5289    1.1052 H   0  0
    1.6751    1.4119    1.4570 H   0  0
    0.1074   -2.5201    2.2883 H   0  0
    5.3871   -0.6717   -0.8601 H   0  0
    6.7858   -2.8254   -1.7769 H   0  0
    3.5812   -8.1296   -0.6069 H   0  0
    5.0961   -7.9522   -1.4946 H   0  0
    3.6884   -5.8866    0.0662 H   0  0
  1  2  3  0
  2 14  1  0
  3  5  1  0
  3  9  2  0
  4  6  2  0
  4  9  1  0
  5 10  2  0
  6 10  1  0
  7  8  1  0
  7 11  2  0
  8 12  2  0
  9 11  1  0
 10 18  1  0
 11 17  1  0
 12 13  1  0
 12 17  1  0
 13 15  1  0
 13 16  2  0
 14 15  1  0
  1 19  1  0
  3 20  1  0
  4 21  1  0
  5 22  1  0
  6 23  1  0
  7 24  1  0
  8 25  1  0
 14 26  1  0
 14 27  1  0
 15 28  1  0
M  END
> <Name>
BR020116

$$$$
BR020117
  SciTegic05062102053D

 50 53  0  0  0  0            999 V2000
    4.0759   -7.7958    7.5223 C   0  0
    4.2931   -8.3535    5.1817 C   0  0
    3.7410   -9.1196    7.8067 C   0  0
    3.9582   -9.6774    5.4660 C   0  0
    4.8386   -4.9149    6.6808 C   0  0
    5.1979   -3.8805    5.7841 C   0  0
    3.6046   -4.4981   -0.4740 C   0  0
    4.3519   -7.4127    6.2098 C   0  0
    3.6822  -10.0604    6.7786 C   0  0
    4.6972   -6.0503    5.9173 C   0  0
    5.2508   -4.4576    4.5366 C   0  0
    4.6799   -3.8369    0.0641 C   0  0
    5.5702   -3.8897    3.2014 C   0  0
    0.4588   -3.1607   -0.8481 C   0  0
   -1.9770   -2.7916   -0.6210 C   0  0
   -1.1544   -3.8196   -2.6993 C   0  0
   -2.8954   -1.9250   -1.4709 C   0  0
   -2.1117   -2.9132   -3.4629 C   0  0
    5.8362   -4.3850    0.7848 C   0  0
    1.5956   -3.6221   -1.7245 C   0  0
    4.5546   -2.4945   -0.1631 N   0  0
    3.4234   -2.2975   -0.8315 N   0  0
    2.8553   -3.5001   -1.0168 N   0  0
   -0.8181   -3.2244   -1.4017 N   0  0
    5.5257   -4.7811    2.1444 N   0  0
    5.8677   -2.7016    3.1103 O   0  0
    0.6996   -2.7530    0.2910 O   0  0
    4.9469   -5.7801    4.6092 O   0  0
   -3.2623   -2.6189   -2.6662 O   0  0
    3.2318  -11.8550    7.1640 Br  0  0
    4.1173   -7.0742    8.3350 H   0  0
    4.5060   -8.0705    4.1535 H   0  0
    3.5289   -9.4020    8.8348 H   0  0
    3.9179  -10.3983    4.6535 H   0  0
    4.6998   -4.8370    7.7497 H   0  0
    5.3923   -2.8443    6.0220 H   0  0
    3.3210   -5.5402   -0.5176 H   0  0
   -1.6682   -2.2526    0.2796 H   0  0
   -2.4995   -3.7036   -0.3090 H   0  0
   -1.6371   -4.7795   -2.4814 H   0  0
   -0.2686   -4.0180   -3.3049 H   0  0
   -3.8126   -1.6956   -0.9199 H   0  0
   -2.4165   -0.9752   -1.7369 H   0  0
   -1.6253   -1.9748   -3.7547 H   0  0
   -2.4533   -3.4113   -4.3755 H   0  0
    6.2546   -5.2808    0.2859 H   0  0
    6.6743   -3.6649    0.8554 H   0  0
    1.6209   -3.0050   -2.6197 H   0  0
    1.4305   -4.6627   -1.9947 H   0  0
    5.3335   -5.7629    2.3018 H   0  0
  1  3  1  0
  1  8  2  0
  2  4  2  0
  2  8  1  0
  3  9  2  0
  4  9  1  0
  5  6  1  0
  5 10  2  0
  6 11  2  0
  7 12  2  0
  7 23  1  0
  8 10  1  0
  9 30  1  0
 10 28  1  0
 11 13  1  0
 11 28  1  0
 12 19  1  0
 12 21  1  0
 13 25  1  0
 13 26  2  0
 14 20  1  0
 14 24  1  0
 14 27  2  0
 15 17  1  0
 15 24  1  0
 16 18  1  0
 16 24  1  0
 17 29  1  0
 18 29  1  0
 19 25  1  0
 20 23  1  0
 21 22  2  0
 22 23  1  0
  1 31  1  0
  2 32  1  0
  3 33  1  0
  4 34  1  0
  5 35  1  0
  6 36  1  0
  7 37  1  0
 15 38  1  0
 15 39  1  0
 16 40  1  0
 16 41  1  0
 17 42  1  0
 17 43  1  0
 18 44  1  0
 18 45  1  0
 19 46  1  0
 19 47  1  0
 20 48  1  0
 20 49  1  0
 25 50  1  0
M  END
> <Name>
BR020117

$$$$
BR020118
  SciTegic05062102053D

 73 76  0  0  1  0            999 V2000
  -11.5355    3.0659   -3.7430 C   0  0
   -9.2831    2.6314   -2.9849 C   0  0
  -11.7025    3.9940   -2.7152 C   0  0
   -9.4500    3.5595   -1.9571 C   0  0
  -10.9613    0.9724   -5.9513 C   0  0
  -10.1944    0.0207   -6.6649 C   0  0
   -3.7137    0.1069   -4.3551 C   0  0
  -10.3258    2.3846   -3.8778 C   0  0
  -10.6597    4.2408   -1.8222 C   0  0
  -10.1539    1.4300   -4.9361 C   0  0
   -8.9728   -0.0353   -6.0351 C   0  0
   -4.4651   -1.0252   -4.5462 C   0  0
   -7.7564   -0.8409   -6.3150 C   0  0
   -2.3673    2.7233    1.5063 C   0  0
    1.7161    1.2182    1.0648 C   0  0
   -4.7046    1.2927   -0.4429 C   0  0
    2.4897   -2.1810   -1.7404 C   0  0
   -1.3384    1.6626   -0.3375 C   0  0  1  0  0  0
    0.0024    0.9550   -0.5408 C   0  0  1  0  0  0
   -2.4603    0.9571   -1.1020 C   0  0  2  0  0  0
    0.2712    0.7216   -2.0306 C   0  0  1  0  0  0
   -2.0474    0.6854   -2.5533 C   0  0  2  0  0  0
   -2.6144    2.5814    2.9777 C   0  0
    2.7505    2.1847    1.5566 C   0  0
   -5.8244    2.2877   -0.4890 C   0  0
    2.2147   -3.4610   -1.0111 C   0  0
   -5.4264   -1.3276   -5.6145 C   0  0
    1.5476   -0.0793   -2.2689 C   0  0
   -4.2004   -1.9257   -3.5519 N   0  0
   -3.2997   -1.3837   -2.7395 N   0  0
   -3.0093   -0.1649   -3.2228 N   0  0
   -6.6905   -0.6352   -5.4574 N   0  0
   -7.7522   -1.6078   -7.2743 O   0  0
   -2.7640    3.6646    0.8326 O   0  0
    1.5385    0.1044    1.5393 O   0  0
   -4.7870    0.1924    0.0861 O   0  0
    3.5265   -1.9469   -2.3465 O   0  0
   -8.9400    0.8208   -4.9802 O   0  0
   -0.8033   -0.0140   -2.6175 O   0  0
   -1.6462    1.6555    1.0579 O   0  0
    1.0234    1.7723    0.0261 O   0  0
   -3.6073    1.8058   -1.0724 O   0  0
    1.4201   -1.3330   -1.6232 O   0  0
  -10.8843    5.5007   -0.4315 Br  0  0
  -12.3581    2.8846   -4.4309 H   0  0
   -8.3340    2.1087   -3.0771 H   0  0
  -12.6512    4.5167   -2.6239 H   0  0
   -8.6271    3.7410   -1.2704 H   0  0
  -11.9766    1.2818   -6.1550 H   0  0
  -10.4987   -0.5516   -7.5298 H   0  0
   -3.6216    1.0363   -4.8992 H   0  0
   -1.2651    2.7167   -0.6332 H   0  0
   -0.0090    0.0046    0.0081 H   0  0
   -2.7235    0.0257   -0.5842 H   0  0
    0.3783    1.6808   -2.5545 H   0  0
   -2.0014    1.6030   -3.1508 H   0  0
   -3.5478    2.0388    3.1464 H   0  0
   -2.6528    3.5689    3.4443 H   0  0
   -1.7952    2.0148    3.4299 H   0  0
    3.6874    2.0327    1.0150 H   0  0
    2.9005    2.0526    2.6311 H   0  0
    2.4059    3.2073    1.3769 H   0  0
   -5.7796    2.9373    0.3886 H   0  0
   -6.7833    1.7652   -0.5334 H   0  0
   -5.7235    2.9059   -1.3858 H   0  0
    2.5560   -3.3790    0.0238 H   0  0
    2.7143   -4.2910   -1.5171 H   0  0
    1.1378   -3.6530   -1.0089 H   0  0
   -5.0410   -1.0515   -6.6153 H   0  0
   -5.6692   -2.4061   -5.6761 H   0  0
    2.4038    0.4536   -1.8552 H   0  0
    1.6938   -0.2374   -3.3374 H   0  0
   -6.7424    0.0604   -4.7233 H   0  0
  1  3  2  0
  1  8  1  0
  2  4  1  0
  2  8  2  0
  3  9  1  0
  4  9  2  0
  5  6  1  0
  5 10  2  0
  6 11  2  0
  7 12  2  0
  7 31  1  0
  8 10  1  0
  9 44  1  0
 10 38  1  0
 11 13  1  0
 11 38  1  0
 12 27  1  0
 12 29  1  0
 13 32  1  0
 13 33  2  0
 14 23  1  0
 14 34  2  0
 14 40  1  0
 15 24  1  0
 15 35  2  0
 15 41  1  0
 16 25  1  0
 16 36  2  0
 16 42  1  0
 17 26  1  0
 17 37  2  0
 17 43  1  0
 18 19  1  0
 18 20  1  0
 18 40  1  0
 19 21  1  0
 19 41  1  0
 20 22  1  0
 20 42  1  0
 21 28  1  0
 21 39  1  0
 22 31  1  0
 22 39  1  0
 27 32  1  0
 28 43  1  0
 29 30  2  0
 30 31  1  0
  1 45  1  0
  2 46  1  0
  3 47  1  0
  4 48  1  0
  5 49  1  0
  6 50  1  0
  7 51  1  0
 18 52  1  0
 19 53  1  0
 20 54  1  0
 21 55  1  0
 22 56  1  0
 23 57  1  0
 23 58  1  0
 23 59  1  0
 24 60  1  0
 24 61  1  0
 24 62  1  0
 25 63  1  0
 25 64  1  0
 25 65  1  0
 26 66  1  0
 26 67  1  0
 26 68  1  0
 27 69  1  0
 27 70  1  0
 28 71  1  0
 28 72  1  0
 32 73  1  0
M  END
> <Name>
BR020118

$$$$
BR020119
  SciTegic05062102053D

 50 53  0  0  0  0            999 V2000
    4.0757   -7.7969    7.5220 C   0  0
    4.2927   -8.3525    5.1808 C   0  0
    3.7402   -9.1208    7.8051 C   0  0
    3.9572   -9.6765    5.4639 C   0  0
    4.8386   -4.9149    6.6808 C   0  0
    5.1979   -3.8805    5.7841 C   0  0
    3.6046   -4.4981   -0.4740 C   0  0
    4.3519   -7.4127    6.2098 C   0  0
    3.6810  -10.0606    6.7761 C   0  0
    4.6972   -6.0503    5.9173 C   0  0
    5.2508   -4.4576    4.5366 C   0  0
    4.6799   -3.8369    0.0641 C   0  0
    5.5702   -3.8897    3.2014 C   0  0
    0.4588   -3.1607   -0.8481 C   0  0
   -1.9770   -2.7916   -0.6210 C   0  0
   -1.1544   -3.8196   -2.6993 C   0  0
   -2.8954   -1.9250   -1.4709 C   0  0
   -2.1117   -2.9132   -3.4629 C   0  0
    5.8362   -4.3850    0.7848 C   0  0
    1.5956   -3.6221   -1.7245 C   0  0
    4.5546   -2.4945   -0.1631 N   0  0
    3.4234   -2.2975   -0.8315 N   0  0
    2.8553   -3.5001   -1.0168 N   0  0
   -0.8181   -3.2244   -1.4017 N   0  0
    5.5257   -4.7811    2.1444 N   0  0
    5.8677   -2.7016    3.1103 O   0  0
    0.6996   -2.7530    0.2910 O   0  0
    4.9469   -5.7801    4.6092 O   0  0
   -3.2623   -2.6189   -2.6662 O   0  0
    3.2694  -11.6947    7.1253 Cl  0  0
    4.1177   -7.0759    8.3348 H   0  0
    4.5056   -8.0683    4.1528 H   0  0
    3.5270   -9.4058    8.8324 H   0  0
    3.9143  -10.3980    4.6521 H   0  0
    4.6998   -4.8370    7.7497 H   0  0
    5.3923   -2.8443    6.0220 H   0  0
    3.3210   -5.5402   -0.5176 H   0  0
   -1.6682   -2.2526    0.2796 H   0  0
   -2.4995   -3.7036   -0.3090 H   0  0
   -1.6371   -4.7795   -2.4814 H   0  0
   -0.2686   -4.0180   -3.3049 H   0  0
   -3.8126   -1.6956   -0.9199 H   0  0
   -2.4165   -0.9752   -1.7369 H   0  0
   -1.6253   -1.9748   -3.7547 H   0  0
   -2.4533   -3.4113   -4.3755 H   0  0
    6.2546   -5.2808    0.2859 H   0  0
    6.6743   -3.6649    0.8554 H   0  0
    1.6209   -3.0050   -2.6197 H   0  0
    1.4305   -4.6627   -1.9947 H   0  0
    5.3335   -5.7629    2.3018 H   0  0
  1  3  1  0
  1  8  2  0
  2  4  2  0
  2  8  1  0
  3  9  2  0
  4  9  1  0
  5  6  1  0
  5 10  2  0
  6 11  2  0
  7 12  2  0
  7 23  1  0
  8 10  1  0
  9 30  1  0
 10 28  1  0
 11 13  1  0
 11 28  1  0
 12 19  1  0
 12 21  1  0
 13 25  1  0
 13 26  2  0
 14 20  1  0
 14 24  1  0
 14 27  2  0
 15 17  1  0
 15 24  1  0
 16 18  1  0
 16 24  1  0
 17 29  1  0
 18 29  1  0
 19 25  1  0
 20 23  1  0
 21 22  2  0
 22 23  1  0
  1 31  1  0
  2 32  1  0
  3 33  1  0
  4 34  1  0
  5 35  1  0
  6 36  1  0
  7 37  1  0
 15 38  1  0
 15 39  1  0
 16 40  1  0
 16 41  1  0
 17 42  1  0
 17 43  1  0
 18 44  1  0
 18 45  1  0
 19 46  1  0
 19 47  1  0
 20 48  1  0
 20 49  1  0
 25 50  1  0
M  END
> <Name>
BR020119

$$$$
BR020120
  SciTegic05062102053D

 26 27  0  0  0  0            999 V2000
   -1.1173    2.6906    1.7587 C   0  0
   -0.2520    1.8768    1.0244 C   0  0
   -4.6100    2.5651    3.0369 C   0  0
   -1.9700    0.1860    0.8482 C   0  0
   -4.9682    1.3162    2.5572 C   0  0
   -2.4223    2.2616    2.0475 C   0  0
   -2.8420    0.9954    1.5829 C   0  0
   -3.3285    3.0402    2.7800 C   0  0
   -0.6774    0.6287    0.5708 C   0  0
   -2.3892    4.4531    4.5915 C   0  0
   -3.1894    5.4984    2.4666 C   0  0
   -4.0932    0.5811    1.8583 N   0  3
   -2.9770    4.3176    3.2761 N   0  0
    0.3964   -0.3673   -0.3336 Cl  0  0
   -0.7499    3.6571    2.0951 H   0  0
    0.7543    2.2306    0.8138 H   0  0
   -5.3265    3.1531    3.6023 H   0  0
   -2.3049   -0.7870    0.4958 H   0  0
   -5.9418    0.8713    2.7111 H   0  0
   -2.1847    5.5055    4.8051 H   0  0
   -1.4511    3.8942    4.6457 H   0  0
   -3.0723    4.0659    5.3524 H   0  0
   -2.8613    6.3893    3.0083 H   0  0
   -4.2503    5.6047    2.2242 H   0  0
   -2.6227    5.4246    1.5345 H   0  0
   -4.3965   -0.3335    1.5227 H   0  0
  1  2  2  0
  1  6  1  0
  2  9  1  0
  3  5  1  0
  3  8  2  0
  4  7  1  0
  4  9  2  0
  5 12  2  0
  6  7  2  0
  6  8  1  0
  7 12  1  0
  8 13  1  0
  9 14  1  0
 10 13  1  0
 11 13  1  0
  1 15  1  0
  2 16  1  0
  3 17  1  0
  4 18  1  0
  5 19  1  0
 10 20  1  0
 10 21  1  0
 10 22  1  0
 11 23  1  0
 11 24  1  0
 11 25  1  0
 12 26  1  0
M  CHG  1  12   1
M  END
> <Name>
BR020120

$$$$
BR020121
  SciTegic05062102053D

 18 19  0  0  0  0            999 V2000
    2.5342   -0.5450   -2.2033 C   0  0
    1.8883   -0.2039   -1.0152 C   0  0
   -0.2594   -0.6715   -2.0302 C   0  0
    1.7768   -0.9501   -3.3051 C   0  0
    0.3721   -1.0168   -3.2289 C   0  0
    0.4969   -0.2668   -0.9285 C   0  0
    1.5778   -1.7409   -5.7143 C   0  0
    0.2556   -1.7626   -5.5149 C   0  0
    2.4472   -1.3191   -4.5826 C   0  0
   -0.3661   -1.4261   -4.3462 N   0  0
    3.6646   -1.2813   -4.7071 O   0  0
   -0.2902    0.1564    0.5432 Cl  0  0
    3.6179   -0.4899   -2.2514 H   0  0
    2.4839    0.1104   -0.1615 H   0  0
   -1.3442   -0.7198   -1.9602 H   0  0
    2.0320   -2.0157   -6.6574 H   0  0
   -0.4319   -2.0600   -6.2977 H   0  0
   -1.3748   -1.4754   -4.2973 H   0  0
  1  2  1  0
  1  4  2  0
  2  6  2  0
  3  5  2  0
  3  6  1  0
  4  5  1  0
  4  9  1  0
  5 10  1  0
  6 12  1  0
  7  8  2  0
  7  9  1  0
  8 10  1  0
  9 11  2  0
  1 13  1  0
  2 14  1  0
  3 15  1  0
  7 16  1  0
  8 17  1  0
 10 18  1  0
M  END
> <Name>
BR020121

$$$$
BR020122
  SciTegic05062102053D

 23 24  0  0  0  0            999 V2000
   -0.9816    4.4568    2.8880 C   0  0
   -0.6833    3.4926    3.5383 C   0  0
    3.0618    0.1821    1.4486 C   0  0
    2.0854   -0.1257    0.5065 C   0  0
    0.4099    0.9166    1.9074 C   0  0
    2.7075    0.8593    2.6229 C   0  0
    1.3704    1.2435    2.8808 C   0  0
    0.7632    0.2404    0.7350 C   0  0
    3.3611    1.8894    4.8419 C   0  0
    2.0705    2.2033    4.9808 C   0  0
    3.7704    1.1749    3.6133 C   0  0
   -0.3246    2.3158    4.3336 C   0  0
    1.0599    1.9255    4.0810 N   0  0
    4.9406    0.8628    3.4329 O   0  0
   -0.4449   -0.1409   -0.4321 Cl  0  0
   -1.2460    5.3117    2.3107 H   0  0
    4.0898   -0.1113    1.2541 H   0  0
    2.3705   -0.6514   -0.4011 H   0  0
   -0.6343    1.1865    2.0492 H   0  0
    4.1062    2.1369    5.5870 H   0  0
    1.7364    2.7278    5.8698 H   0  0
   -0.9831    1.4765    4.0894 H   0  0
   -0.4487    2.5309    5.3997 H   0  0
  1  2  3  0
  2 12  1  0
  3  4  1  0
  3  6  2  0
  4  8  2  0
  5  7  2  0
  5  8  1  0
  6  7  1  0
  6 11  1  0
  7 13  1  0
  8 15  1  0
  9 10  2  0
  9 11  1  0
 10 13  1  0
 11 14  2  0
 12 13  1  0
  1 16  1  0
  3 17  1  0
  4 18  1  0
  5 19  1  0
  9 20  1  0
 10 21  1  0
 12 22  1  0
 12 23  1  0
M  END
> <Name>
BR020122

$$$$
BR020123
  SciTegic05062102053D

 45 48  0  0  0  0            999 V2000
    6.2677   -1.7122    4.1415 C   0  0
    6.5324   -3.0763    4.2120 C   0  0
    6.5109   -3.2020    1.7953 C   0  0
    3.6929   -2.3159   -1.2548 C   0  0
    6.1246   -1.0943    2.8922 C   0  0
    6.2430   -1.8259    1.6869 C   0  0
    6.6537   -3.8192    3.0424 C   0  0
    4.9849   -2.7398   -1.0706 C   0  0
    5.6949    0.9838    1.5105 C   0  0
    5.8269    0.1970    0.4395 C   0  0
    5.8410    0.3643    2.8456 C   0  0
    1.3369   -3.9054   -3.1826 C   0  0
   -0.3339   -4.3540   -4.9514 C   0  0
   -1.1559   -3.8641   -2.6848 C   0  0
   -1.3647   -5.4710   -5.0308 C   0  0
   -2.1569   -4.9990   -2.8610 C   0  0
    6.2152   -1.9271   -0.7874 C   0  0
    1.5956   -3.6221   -1.7245 C   0  0
    5.0414   -4.1017   -1.1778 N   0  0
    3.8131   -4.5429   -1.4263 N   0  0
    3.0061   -3.4705   -1.4722 N   0  0
    6.0902   -1.1590    0.4484 N   0  0
    0.0052   -4.0714   -3.5567 N   0  0
    5.7307    1.0380    3.8621 O   0  0
    2.2893   -3.9804   -3.9630 O   0  0
   -2.5097   -5.1435   -4.2393 O   0  0
    6.9817   -5.5079    3.1307 Cl  0  0
    6.1760   -1.1470    5.0650 H   0  0
    6.6415   -3.5462    5.1859 H   0  0
    6.6136   -3.8167    0.9038 H   0  0
    3.2242   -1.3419   -1.2493 H   0  0
    5.4880    2.0436    1.4352 H   0  0
    5.7259    0.6193   -0.5547 H   0  0
    0.5574   -4.6143   -5.5300 H   0  0
   -0.7484   -3.4268   -5.3642 H   0  0
   -1.6060   -2.9132   -2.9934 H   0  0
   -0.8736   -3.7778   -1.6343 H   0  0
   -1.6971   -5.6035   -6.0650 H   0  0
   -0.9483   -6.4252   -4.6866 H   0  0
   -1.7526   -5.9486   -2.4906 H   0  0
   -3.0719   -4.7832   -2.3008 H   0  0
    7.0932   -2.5754   -0.6942 H   0  0
    6.4163   -1.2221   -1.6009 H   0  0
    1.2179   -4.4480   -1.1147 H   0  0
    1.0866   -2.6994   -1.4307 H   0  0
  1  2  1  0
  1  5  2  0
  2  7  2  0
  3  6  2  0
  3  7  1  0
  4  8  2  0
  4 21  1  0
  5  6  1  0
  5 11  1  0
  6 22  1  0
  7 27  1  0
  8 17  1  0
  8 19  1  0
  9 10  2  0
  9 11  1  0
 10 22  1  0
 11 24  2  0
 12 18  1  0
 12 23  1  0
 12 25  2  0
 13 15  1  0
 13 23  1  0
 14 16  1  0
 14 23  1  0
 15 26  1  0
 16 26  1  0
 17 22  1  0
 18 21  1  0
 19 20  2  0
 20 21  1  0
  1 28  1  0
  2 29  1  0
  3 30  1  0
  4 31  1  0
  9 32  1  0
 10 33  1  0
 13 34  1  0
 13 35  1  0
 14 36  1  0
 14 37  1  0
 15 38  1  0
 15 39  1  0
 16 40  1  0
 16 41  1  0
 17 42  1  0
 17 43  1  0
 18 44  1  0
 18 45  1  0
M  END
> <Name>
BR020123

$$$$
BR020124
  SciTegic05062102053D

 68 71  0  0  1  0            999 V2000
   -9.7542    0.2926   -3.8858 C   0  0
   -9.3160    1.6095   -3.9835 C   0  0
   -7.1868    0.8344   -4.8332 C   0  0
   -3.7137    0.1069   -4.3551 C   0  0
   -8.9032   -0.7543   -4.2638 C   0  0
   -7.5966   -0.5079   -4.7475 C   0  0
   -8.0360    1.8798   -4.4559 C   0  0
   -4.4651   -1.0252   -4.5462 C   0  0
   -8.4716   -3.2324   -4.5549 C   0  0
   -7.2607   -2.8840   -4.9973 C   0  0
   -9.3963   -2.1520   -4.1484 C   0  0
   -2.3673    2.7233    1.5063 C   0  0
    1.7161    1.2182    1.0648 C   0  0
   -4.7046    1.2927   -0.4429 C   0  0
    2.4897   -2.1810   -1.7404 C   0  0
   -1.3384    1.6626   -0.3375 C   0  0  1  0  0  0
    0.0024    0.9550   -0.5408 C   0  0  1  0  0  0
   -2.4603    0.9571   -1.1020 C   0  0  2  0  0  0
    0.2712    0.7216   -2.0306 C   0  0  1  0  0  0
   -2.0474    0.6854   -2.5533 C   0  0  2  0  0  0
   -2.6144    2.5814    2.9777 C   0  0
    2.7505    2.1847    1.5566 C   0  0
   -5.8244    2.2877   -0.4890 C   0  0
    2.2147   -3.4610   -1.0111 C   0  0
   -5.4264   -1.3276   -5.6145 C   0  0
    1.5476   -0.0793   -2.2689 C   0  0
   -4.2004   -1.9257   -3.5519 N   0  0
   -3.2997   -1.3837   -2.7395 N   0  0
   -3.0093   -0.1649   -3.2228 N   0  0
   -6.7629   -1.5953   -5.1205 N   0  0
  -10.5191   -2.4134   -3.7358 O   0  0
   -2.7640    3.6646    0.8326 O   0  0
    1.5385    0.1044    1.5393 O   0  0
   -4.7870    0.1924    0.0861 O   0  0
    3.5265   -1.9469   -2.3465 O   0  0
   -0.8033   -0.0140   -2.6175 O   0  0
   -1.6462    1.6555    1.0579 O   0  0
    1.0234    1.7723    0.0261 O   0  0
   -3.6073    1.8058   -1.0724 O   0  0
    1.4201   -1.3330   -1.6232 O   0  0
   -7.4945    3.5105   -4.5767 Cl  0  0
  -10.7571    0.0993   -3.5148 H   0  0
   -9.9837    2.4144   -3.6876 H   0  0
   -6.1936    1.0865   -5.1984 H   0  0
   -3.6216    1.0363   -4.8992 H   0  0
   -8.7941   -4.2633   -4.4853 H   0  0
   -6.5578   -3.6515   -5.3038 H   0  0
   -1.2651    2.7167   -0.6332 H   0  0
   -0.0090    0.0046    0.0081 H   0  0
   -2.7235    0.0257   -0.5842 H   0  0
    0.3783    1.6808   -2.5545 H   0  0
   -2.0014    1.6030   -3.1508 H   0  0
   -3.5478    2.0388    3.1464 H   0  0
   -2.6528    3.5689    3.4443 H   0  0
   -1.7952    2.0148    3.4299 H   0  0
    3.6874    2.0327    1.0150 H   0  0
    2.9005    2.0526    2.6311 H   0  0
    2.4059    3.2073    1.3769 H   0  0
   -5.7796    2.9373    0.3886 H   0  0
   -6.7833    1.7652   -0.5334 H   0  0
   -5.7235    2.9059   -1.3858 H   0  0
    2.5560   -3.3790    0.0238 H   0  0
    2.7143   -4.2910   -1.5171 H   0  0
    1.1378   -3.6530   -1.0089 H   0  0
   -5.5219   -0.4961   -6.3398 H   0  0
   -5.1339   -2.2123   -6.2126 H   0  0
    2.4038    0.4536   -1.8552 H   0  0
    1.6938   -0.2374   -3.3374 H   0  0
  1  2  1  0
  1  5  2  0
  2  7  2  0
  3  6  2  0
  3  7  1  0
  4  8  2  0
  4 29  1  0
  5  6  1  0
  5 11  1  0
  6 30  1  0
  7 41  1  0
  8 25  1  0
  8 27  1  0
  9 10  2  0
  9 11  1  0
 10 30  1  0
 11 31  2  0
 12 21  1  0
 12 32  2  0
 12 37  1  0
 13 22  1  0
 13 33  2  0
 13 38  1  0
 14 23  1  0
 14 34  2  0
 14 39  1  0
 15 24  1  0
 15 35  2  0
 15 40  1  0
 16 17  1  0
 16 18  1  0
 16 37  1  0
 17 19  1  0
 17 38  1  0
 18 20  1  0
 18 39  1  0
 19 26  1  0
 19 36  1  0
 20 29  1  0
 20 36  1  0
 25 30  1  0
 26 40  1  0
 27 28  2  0
 28 29  1  0
  1 42  1  0
  2 43  1  0
  3 44  1  0
  4 45  1  0
  9 46  1  0
 10 47  1  0
 16 48  1  0
 17 49  1  0
 18 50  1  0
 19 51  1  0
 20 52  1  0
 21 53  1  0
 21 54  1  0
 21 55  1  0
 22 56  1  0
 22 57  1  0
 22 58  1  0
 23 59  1  0
 23 60  1  0
 23 61  1  0
 24 62  1  0
 24 63  1  0
 24 64  1  0
 25 65  1  0
 25 66  1  0
 26 67  1  0
 26 68  1  0
M  END
> <Name>
BR020124

$$$$
BR020125
  SciTegic05062102053D

 68 71  0  0  1  0            999 V2000
   -6.3024   -5.0405   -3.8380 C   0  0
   -6.6575   -3.7009   -3.9610 C   0  0
   -4.3475   -3.1330   -4.4058 C   0  0
   -1.1961   -1.8132   -3.3345 C   0  0
   -4.9646   -5.4240   -3.9998 C   0  0
   -3.9532   -4.4775   -4.2882 C   0  0
   -5.6830   -2.7497   -4.2442 C   0  0
   -1.1491   -3.1662   -3.5587 C   0  0
   -3.1912   -7.2311   -4.0381 C   0  0
   -2.3214   -6.2545   -4.3082 C   0  0
   -4.6126   -6.8617   -3.8621 C   0  0
   -1.6248    1.7068    2.8469 C   0  0
    1.8866   -0.0401    2.8536 C   0  0
   -3.3512   -1.4582    0.2694 C   0  0
    4.6138    2.2690    0.3429 C   0  0
   -0.7929    0.6870    0.8843 C   0  0  1  0  0  0
    0.7287    0.8020    0.9738 C   0  0  2  0  0  0
   -1.2067   -0.5004    0.0093 C   0  0  2  0  0  0
    1.3312    0.8384   -0.4336 C   0  0  1  0  0  0
   -0.4671   -0.4547   -1.3398 C   0  0  2  0  0  0
   -2.1817    1.4018    4.2044 C   0  0
    2.3526   -1.3118    3.4952 C   0  0
   -4.8022   -1.2311   -0.0289 C   0  0
    4.8952    3.5445    1.0778 C   0  0
   -1.5822   -3.9233   -4.7403 C   0  0
    2.8541    0.8927   -0.4270 C   0  0
   -0.6054   -3.7934   -2.4722 N   0  0
   -0.3105   -2.8641   -1.5697 N   0  0
   -0.6656   -1.6776   -2.0886 N   0  0
   -2.6079   -4.9044   -4.4450 N   0  0
   -5.4537   -7.7162   -3.6138 O   0  0
   -1.4652    2.8386    2.4102 O   0  0
    2.0790    1.0739    3.3217 O   0  0
   -2.9178   -2.4410    0.8554 O   0  0
    5.4807    1.5284   -0.1010 O   0  0
    0.9485   -0.3364   -1.1579 O   0  0
   -1.3330    0.5423    2.1952 O   0  0
    1.2300   -0.3269    1.6927 O   0  0
   -2.6145   -0.4130   -0.2086 O   0  0
    3.2620    2.0688    0.2488 O   0  0
   -6.1235   -1.0915   -4.3966 Cl  0  0
   -7.0764   -5.7704   -3.6166 H   0  0
   -7.6979   -3.4136   -3.8335 H   0  0
   -3.6150   -2.3598   -4.6272 H   0  0
   -1.5423   -0.9757   -3.9235 H   0  0
   -2.8954   -8.2682   -3.9453 H   0  0
   -1.2712   -6.4909   -4.4434 H   0  0
   -1.2076    1.6150    0.4705 H   0  0
    0.9985    1.6963    1.5473 H   0  0
   -1.0120   -1.4394    0.5426 H   0  0
    0.9582    1.7176   -0.9748 H   0  0
   -0.8345    0.3504   -1.9860 H   0  0
   -3.2690    1.3083    4.1468 H   0  0
   -1.8993    2.1900    4.9069 H   0  0
   -1.7687    0.4538    4.5612 H   0  0
    1.5816   -1.6906    4.1706 H   0  0
    3.2856   -1.1343    4.0360 H   0  0
    2.5370   -2.0622    2.7209 H   0  0
   -5.2696   -0.6871    0.7955 H   0  0
   -5.3020   -2.1894   -0.1910 H   0  0
   -4.8957   -0.6319   -0.9394 H   0  0
    4.9500    4.3757    0.3705 H   0  0
    5.8297    3.4520    1.6370 H   0  0
    4.0847    3.7417    1.7854 H   0  0
   -1.9959   -3.2665   -5.5301 H   0  0
   -0.7516   -4.4775   -5.2188 H   0  0
    3.2316    0.9170   -1.4499 H   0  0
    3.2571    0.0221    0.0918 H   0  0
  1  2  1  0
  1  5  2  0
  2  7  2  0
  3  6  2  0
  3  7  1  0
  4  8  2  0
  4 29  1  0
  5  6  1  0
  5 11  1  0
  6 30  1  0
  7 41  1  0
  8 25  1  0
  8 27  1  0
  9 10  2  0
  9 11  1  0
 10 30  1  0
 11 31  2  0
 12 21  1  0
 12 32  2  0
 12 37  1  0
 13 22  1  0
 13 33  2  0
 13 38  1  0
 14 23  1  0
 14 34  2  0
 14 39  1  0
 15 24  1  0
 15 35  2  0
 15 40  1  0
 16 17  1  0
 16 18  1  0
 16 37  1  0
 17 19  1  0
 17 38  1  0
 18 20  1  0
 18 39  1  0
 19 26  1  0
 19 36  1  0
 20 29  1  0
 20 36  1  0
 25 30  1  0
 26 40  1  0
 27 28  2  0
 28 29  1  0
  1 42  1  0
  2 43  1  0
  3 44  1  0
  4 45  1  0
  9 46  1  0
 10 47  1  0
 16 48  1  0
 17 49  1  0
 18 50  1  0
 19 51  1  0
 20 52  1  0
 21 53  1  0
 21 54  1  0
 21 55  1  0
 22 56  1  0
 22 57  1  0
 22 58  1  0
 23 59  1  0
 23 60  1  0
 23 61  1  0
 24 62  1  0
 24 63  1  0
 24 64  1  0
 25 65  1  0
 25 66  1  0
 26 67  1  0
 26 68  1  0
M  END
> <Name>
BR020125

$$$$
BR020126
  SciTegic05062102053D

 69 72  0  0  1  0            999 V2000
    2.3418    5.6552   -6.6640 C   0  0
    1.2181    6.1351   -5.9985 C   0  0
    2.1710    5.4306   -3.8885 C   0  0
    2.3422    3.1218   -1.1572 C   0  0
    3.3814    5.0614   -5.9362 C   0  0
    3.3208    4.9348   -4.5284 C   0  0
    1.1329    6.0233   -4.6148 C   0  0
    3.4678    3.0908   -1.9414 C   0  0
    5.6481    3.9343   -5.8731 C   0  0
    5.4847    3.8681   -4.5493 C   0  0
    4.5700    4.5561   -6.6723 C   0  0
   -0.5382    1.1857   -3.6280 C   0  0
   -3.0936   -1.5031   -1.0678 C   0  0
   -1.6435   -2.9522    1.5664 C   0  0
    2.6450   -2.7448    2.8440 C   0  0
   -0.0767    0.4533   -1.2971 C   0  0  2  0  0  0
   -1.1372   -0.3085   -0.4937 C   0  0  2  0  0  0
   -0.5108   -1.0827    0.6686 C   0  0  1  0  0  0
    0.4069   -0.1764    1.4933 C   0  0  1  0  0  0
    0.8466    1.2561   -0.3616 C   0  0  2  0  0  0
   -1.2885    2.1903   -4.4380 C   0  0
   -3.6441   -2.4827   -2.0594 C   0  0
   -2.7933   -3.3397    2.4461 C   0  0
    3.4155   -3.7717    2.0708 C   0  0
    4.3183    4.2038   -2.3827 C   0  0
    1.1390   -0.9415    2.5911 C   0  0
    3.7432    1.8002   -2.2991 N   0  0
    2.8145    1.0195   -1.7577 N   0  0
    1.9754    1.8139   -1.0735 N   0  0
    4.3943    4.3267   -3.8252 N   0  0
   -0.7108    1.3223   -2.2646 N   0  0
    4.6668    4.6443   -7.8898 O   0  0
    0.1485    0.3438   -4.1948 O   0  0
   -3.7380   -1.0307   -0.1412 O   0  0
   -0.8985   -3.7541    1.0195 O   0  0
    2.6741   -2.6408    4.0628 O   0  0
    1.4016    0.4061    0.6489 O   0  0
   -1.7895   -1.2347   -1.3653 O   0  0
   -1.5670   -1.5911    1.4793 O   0  0
    1.9185   -1.9588    1.9889 O   0  0
   -0.2585    6.6181   -3.7917 Cl  0  0
    2.3920    5.7506   -7.7453 H   0  0
    0.4170    6.5938   -6.5722 H   0  0
    2.0674    5.3625   -2.8078 H   0  0
    1.7971    3.9202   -0.6738 H   0  0
    6.5298    3.5543   -6.3729 H   0  0
    6.2563    3.4185   -3.9333 H   0  0
    0.5145   -0.2657   -1.8797 H   0  0
   -1.9091    0.3784   -0.1228 H   0  0
    0.0445   -1.9400    0.2665 H   0  0
   -0.1722    0.6234    1.9731 H   0  0
    0.3340    2.1045    0.1061 H   0  0
   -0.6996    3.1020   -4.6278 H   0  0
   -1.5618    1.8075   -5.4344 H   0  0
   -2.2333    2.5428   -3.9941 H   0  0
   -4.0775   -1.9477   -2.9079 H   0  0
   -4.3945   -3.1153   -1.5785 H   0  0
   -2.8349   -3.1209   -2.4262 H   0  0
   -2.4571   -3.4176    3.4829 H   0  0
   -3.2174   -4.2878    2.1060 H   0  0
   -3.5694   -2.5710    2.3880 H   0  0
    2.8139   -4.6764    1.9539 H   0  0
    4.3535   -3.9962    2.5848 H   0  0
    3.6491   -3.3776    1.0775 H   0  0
    3.9595    5.1807   -2.0041 H   0  0
    5.3617    4.1105   -2.0240 H   0  0
    0.4189   -1.3952    3.2723 H   0  0
    1.7926   -0.2662    3.1434 H   0  0
   -1.3106    2.0673   -1.9254 H   0  0
  1  2  1  0
  1  5  2  0
  2  7  2  0
  3  6  2  0
  3  7  1  0
  4  8  2  0
  4 29  1  0
  5  6  1  0
  5 11  1  0
  6 30  1  0
  7 41  1  0
  8 25  1  0
  8 27  1  0
  9 10  2  0
  9 11  1  0
 10 30  1  0
 11 32  2  0
 12 21  1  0
 12 31  1  0
 12 33  2  0
 13 22  1  0
 13 34  2  0
 13 38  1  0
 14 23  1  0
 14 35  2  0
 14 39  1  0
 15 24  1  0
 15 36  2  0
 15 40  1  0
 16 17  1  0
 16 20  1  0
 16 31  1  0
 17 18  1  0
 17 38  1  0
 18 19  1  0
 18 39  1  0
 19 26  1  0
 19 37  1  0
 20 29  1  0
 20 37  1  0
 25 30  1  0
 26 40  1  0
 27 28  2  0
 28 29  1  0
  1 42  1  0
  2 43  1  0
  3 44  1  0
  4 45  1  0
  9 46  1  0
 10 47  1  0
 16 48  1  0
 17 49  1  0
 18 50  1  0
 19 51  1  0
 20 52  1  0
 21 53  1  0
 21 54  1  0
 21 55  1  0
 22 56  1  0
 22 57  1  0
 22 58  1  0
 23 59  1  0
 23 60  1  0
 23 61  1  0
 24 62  1  0
 24 63  1  0
 24 64  1  0
 25 65  1  0
 25 66  1  0
 26 67  1  0
 26 68  1  0
 31 69  1  0
M  END
> <Name>
BR020126

$$$$
BR020127
  SciTegic05062102053D

 54 57  0  0  1  0            999 V2000
    3.2178    1.0876   -6.4729 C   0  0
    2.5650    0.3936   -7.4876 C   0  0
    6.6890    1.9276   -5.4602 C   0  0
    4.7038   -0.1354   -8.4724 C   0  0
    7.3481    1.2909   -6.4923 C   0  0
    2.9069    1.1476   -1.8087 C   0  0
    4.6204    1.1712   -6.4571 C   0  0
    5.3825    0.5522   -7.4700 C   0  0
    5.3032    1.8633   -5.4477 C   0  0
    3.3093   -0.2185   -8.4884 C   0  0
    3.7361    2.1447   -2.2574 C   0  0
   -0.5382    1.1857   -3.6280 C   0  0
   -0.0767    0.4533   -1.2971 C   0  0  2  0  0  0
   -1.1372   -0.3085   -0.4937 C   0  0  2  0  0  0
   -0.5108   -1.0827    0.6686 C   0  0  1  0  0  0
    0.4069   -0.1764    1.4933 C   0  0  1  0  0  0
    0.8466    1.2561   -0.3616 C   0  0  2  0  0  0
   -1.2885    2.1903   -4.4380 C   0  0
    4.9305    2.0422   -3.1057 C   0  0
    1.1390   -0.9415    2.5911 C   0  0
    6.7275    0.6129   -7.4848 N   0  0
    3.2941    3.3529   -1.7945 N   0  0
    2.2057    3.1368   -1.0639 N   0  0
    1.9754    1.8139   -1.0735 N   0  0
   -0.7108    1.3223   -2.2646 N   0  0
    0.1485    0.3438   -4.1948 O   0  0
    1.4016    0.4061    0.6489 O   0  0
   -1.7895   -1.2347   -1.3653 O   0  0
   -1.5670   -1.5911    1.4793 O   0  0
    1.9696   -0.0360    3.2948 O   0  0
    4.6356    2.4883   -4.4320 O   0  0
    2.5140   -1.0771   -9.7505 Cl  0  0
    2.6160    1.5591   -5.6997 H   0  0
    1.4797    0.3403   -7.4847 H   0  0
    7.2402    2.4558   -4.6903 H   0  0
    5.2780   -0.6190   -9.2619 H   0  0
    8.4312    1.3061   -6.5537 H   0  0
    2.8973    0.0751   -1.9422 H   0  0
    0.5145   -0.2657   -1.8797 H   0  0
   -1.9091    0.3784   -0.1228 H   0  0
    0.0445   -1.9400    0.2665 H   0  0
   -0.1722    0.6234    1.9731 H   0  0
    0.3340    2.1045    0.1061 H   0  0
   -0.6996    3.1020   -4.6278 H   0  0
   -1.5618    1.8075   -5.4344 H   0  0
   -2.2333    2.5428   -3.9941 H   0  0
    5.7729    2.6526   -2.7268 H   0  0
    5.3077    1.0037   -3.1756 H   0  0
    1.7539   -1.7267    2.1510 H   0  0
    0.4195   -1.3816    3.2818 H   0  0
   -1.3106    2.0673   -1.9254 H   0  0
   -1.1001   -1.8297   -1.6951 H   0  0
   -2.0694   -0.8229    1.7920 H   0  0
    2.4245   -0.5451    3.9873 H   0  0
  1  2  2  0
  1  7  1  0
  2 10  1  0
  3  5  1  0
  3  9  2  0
  4  8  1  0
  4 10  2  0
  5 21  2  0
  6 11  2  0
  6 24  1  0
  7  8  2  0
  7  9  1  0
  8 21  1  0
  9 31  1  0
 10 32  1  0
 11 19  1  0
 11 22  1  0
 12 18  1  0
 12 25  1  0
 12 26  2  0
 13 14  1  0
 13 17  1  0
 13 25  1  0
 14 15  1  0
 14 28  1  0
 15 16  1  0
 15 29  1  0
 16 20  1  0
 16 27  1  0
 17 24  1  0
 17 27  1  0
 19 31  1  0
 20 30  1  0
 22 23  2  0
 23 24  1  0
  1 33  1  0
  2 34  1  0
  3 35  1  0
  4 36  1  0
  5 37  1  0
  6 38  1  0
 13 39  1  0
 14 40  1  0
 15 41  1  0
 16 42  1  0
 17 43  1  0
 18 44  1  0
 18 45  1  0
 18 46  1  0
 19 47  1  0
 19 48  1  0
 20 49  1  0
 20 50  1  0
 25 51  1  0
 28 52  1  0
 29 53  1  0
 30 54  1  0
M  END
> <Name>
BR020127

$$$$
BR020128
  SciTegic05062102053D

 63 66  0  0  0  0            999 V2000
    0.2644   -6.5170    2.5303 C   0  0
    0.9234   -4.3579    1.6696 C   0  0
    0.0050   -3.9667    5.7171 C   0  0
   -2.3146   -3.3280    5.4968 C   0  0
    1.6035   -6.8363    2.7546 C   0  0
    2.2626   -4.6772    1.8939 C   0  0
   -0.3850   -5.2282    6.1666 C   0  0
   -2.7046   -4.5895    5.9462 C   0  0
   -2.6359   -5.3043    2.3649 C   0  0
    0.5330   -0.9148    5.1542 C   0  0
   -3.6600   -4.6338    1.6545 C   0  0
    0.3306    0.2573    4.3872 C   0  0
   -0.0757   -5.2778    1.9878 C   0  0
   -0.9597   -3.0165    5.3823 C   0  0
    2.6026   -5.9164    2.4364 C   0  0
   -1.7398   -5.5396    6.2811 C   0  0
   -1.4540   -4.9489    1.7576 C   0  0
   -0.5583   -1.7185    4.9190 C   0  0
   -3.0310   -3.9162    0.6638 C   0  0
   -0.8697    0.0862    3.7376 C   0  0
   -3.5654   -3.0217   -0.3951 C   0  0
   -1.6142    0.9626    2.7969 C   0  0
   -2.9932   -0.0900   -1.8464 C   0  0
   -0.7645    3.4624    0.4088 C   0  0
   -2.9843   -1.5435   -2.3012 C   0  0
   -1.6284    3.1484    1.6231 C   0  0
   -1.6316    0.3823   -1.3512 C   0  0
   -0.4992    2.2386   -0.4597 C   0  0
   -2.6255   -2.4491   -1.2441 N   0  0
   -1.0199    2.1828    2.4969 N   0  0
   -4.7754   -2.8199   -0.4558 O   0  0
   -2.6981    0.5874    2.3576 O   0  0
   -1.6861   -4.1028    0.7199 O   0  0
   -1.4180   -1.1156    4.0564 O   0  0
   -1.7411    1.7369   -0.9346 O   0  0
    4.4170   -6.3474    2.7434 Br  0  0
   -2.2687   -7.2500    6.8868 Br  0  0
   -0.5028   -7.2450    2.7836 H   0  0
    0.6743   -3.3876    1.2465 H   0  0
    1.0652   -3.7392    5.6335 H   0  0
   -3.0786   -2.5983    5.2391 H   0  0
    1.8518   -7.8062    3.1783 H   0  0
    3.0288   -3.9487    1.6414 H   0  0
    0.3792   -5.9574    6.4234 H   0  0
   -3.7645   -4.8166    6.0287 H   0  0
   -2.7504   -5.9646    3.2128 H   0  0
    1.3712   -1.1403    5.7981 H   0  0
   -4.7234   -4.6726    1.8440 H   0  0
    0.9812    1.1177    4.3200 H   0  0
   -3.3089    0.5486   -2.6808 H   0  0
   -3.7392    0.0594   -1.0556 H   0  0
   -1.2601    4.2292   -0.1997 H   0  0
    0.1919    3.9000    0.7218 H   0  0
   -3.9809   -1.8355   -2.6467 H   0  0
   -2.2789   -1.6939   -3.1246 H   0  0
   -1.7907    4.0553    2.2138 H   0  0
   -2.6052    2.7576    1.3208 H   0  0
   -1.2905   -0.2136   -0.4990 H   0  0
   -0.8847    0.3237   -2.1494 H   0  0
    0.1228    2.4923   -1.3237 H   0  0
   -0.0043    1.4509    0.1173 H   0  0
   -1.6336   -2.6183   -1.0876 H   0  0
   -0.1481    2.4459    2.9528 H   0  0
  1  5  2  0
  1 13  1  0
  2  6  1  0
  2 13  2  0
  3  7  2  0
  3 14  1  0
  4  8  1  0
  4 14  2  0
  5 15  1  0
  6 15  2  0
  7 16  1  0
  8 16  2  0
  9 11  1  0
  9 17  2  0
 10 12  1  0
 10 18  2  0
 11 19  2  0
 12 20  2  0
 13 17  1  0
 14 18  1  0
 15 36  1  0
 16 37  1  0
 17 33  1  0
 18 34  1  0
 19 21  1  0
 19 33  1  0
 20 22  1  0
 20 34  1  0
 21 29  1  0
 21 31  2  0
 22 30  1  0
 22 32  2  0
 23 25  1  0
 23 27  1  0
 24 26  1  0
 24 28  1  0
 25 29  1  0
 26 30  1  0
 27 35  1  0
 28 35  1  0
  1 38  1  0
  2 39  1  0
  3 40  1  0
  4 41  1  0
  5 42  1  0
  6 43  1  0
  7 44  1  0
  8 45  1  0
  9 46  1  0
 10 47  1  0
 11 48  1  0
 12 49  1  0
 23 50  1  0
 23 51  1  0
 24 52  1  0
 24 53  1  0
 25 54  1  0
 25 55  1  0
 26 56  1  0
 26 57  1  0
 27 58  1  0
 27 59  1  0
 28 60  1  0
 28 61  1  0
 29 62  1  0
 30 63  1  0
M  END
> <Name>
BR020128

$$$$
BR020129
  SciTegic05062102053D

 30 31  0  0  0  0            999 V2000
   -3.1003    0.5846   -6.1005 C   0  0
   -3.3948    0.7194   -7.4572 C   0  0
   -5.2295    1.5792   -5.5395 C   0  0
   -4.0177    1.0145   -5.1416 C   0  0
   -4.6066    1.2840   -7.8551 C   0  0
   -5.5240    1.7140   -6.8963 C   0  0
   -2.4721   -0.9840   -1.4811 C   0  0
   -1.4210    1.0760   -1.5065 C   0  0
   -3.7044    0.8711   -3.6971 C   0  0
   -1.9888   -0.7740   -0.0716 C   0  0
   -1.2935    0.5890   -0.0884 C   0  0
   -4.8911    1.4144   -9.3168 C   0  0
   -2.1478    0.1403   -2.1715 N   0  0
   -6.7652    2.2931   -7.2795 N   0  3
   -6.8291    3.5343   -7.4445 O   0  5
   -3.0492   -1.9836   -1.8802 O   0  0
   -0.9547    2.1220   -1.9307 O   0  0
   -4.4643    1.2273   -2.8095 O   0  0
   -7.7582    1.5452   -7.4412 O   0  0
   -2.4779    0.2920   -3.5044 O   0  0
   -4.7065    3.1020   -9.8414 Cl  0  0
   -2.1529    0.1432   -5.8012 H   0  0
   -2.6738    0.3796   -8.1963 H   0  0
   -5.9423    1.9138   -4.7884 H   0  0
   -2.8392   -0.7778    0.6163 H   0  0
   -1.2925   -1.5712    0.2044 H   0  0
   -0.2366    0.4985    0.1789 H   0  0
   -1.7826    1.2933    0.5908 H   0  0
   -5.9125    1.0934   -9.5546 H   0  0
   -4.2092    0.7957   -9.9128 H   0  0
  1  2  2  0
  1  4  1  0
  2  5  1  0
  3  4  2  0
  3  6  1  0
  4  9  1  0
  5  6  2  0
  5 12  1  0
  6 14  1  0
  7 10  1  0
  7 13  1  0
  7 16  2  0
  8 11  1  0
  8 13  1  0
  8 17  2  0
  9 18  2  0
  9 20  1  0
 10 11  1  0
 12 21  1  0
 13 20  1  0
 14 15  1  0
 14 19  2  0
  1 22  1  0
  2 23  1  0
  3 24  1  0
 10 25  1  0
 10 26  1  0
 11 27  1  0
 11 28  1  0
 12 29  1  0
 12 30  1  0
M  CHG  2  14   1  15  -1
M  END
> <Name>
BR020129

$$$$
BR020130
  SciTegic05062102053D

 28 28  0  0  0  0            999 V2000
    1.8851   -1.0363   -0.1124 C   0  0
    0.8066   -0.4630    0.5610 C   0  0
    2.8783   -1.6520    2.0022 C   0  0
    2.9210   -1.6309    0.6081 C   0  0
    0.7638   -0.4841    1.9551 C   0  0
    1.7997   -1.0786    2.6757 C   0  0
    4.0457   -2.2287   -0.0938 C   0  0
   -0.4059    0.1394    2.6460 C   0  0
    4.8149   -3.3416   -2.2043 C   0  0
    5.5446   -2.2946   -3.0258 C   0  0
    3.8071   -2.7025   -1.3891 N   0  0
    1.7770   -1.1109    4.0974 N   0  3
    2.2972   -0.1639    4.7331 O   0  5
    5.1561   -2.3238    0.4584 O   0  0
    1.2371   -2.0853    4.6725 O   0  0
    4.6212   -1.6446   -3.8901 O   0  0
    0.0487    1.7033    3.3564 Cl  0  0
    1.9086   -1.0143   -1.1992 H   0  0
    0.0037   -0.0038   -0.0100 H   0  0
    3.6886   -2.1163    2.5608 H   0  0
   -0.7833   -0.5036    3.4504 H   0  0
   -1.2363    0.3098    1.9498 H   0  0
    4.3204   -4.0767   -2.8473 H   0  0
    5.5134   -3.8592   -1.5399 H   0  0
    6.3098   -2.7714   -3.6462 H   0  0
    6.0198   -1.5420   -2.3882 H   0  0
    2.8670   -2.6571   -1.7686 H   0  0
    5.1261   -0.9866   -4.3944 H   0  0
  1  2  2  0
  1  4  1  0
  2  5  1  0
  3  4  2  0
  3  6  1  0
  4  7  1  0
  5  6  2  0
  5  8  1  0
  6 12  1  0
  7 11  1  0
  7 14  2  0
  8 17  1  0
  9 10  1  0
  9 11  1  0
 10 16  1  0
 12 13  1  0
 12 15  2  0
  1 18  1  0
  2 19  1  0
  3 20  1  0
  8 21  1  0
  8 22  1  0
  9 23  1  0
  9 24  1  0
 10 25  1  0
 10 26  1  0
 11 27  1  0
 16 28  1  0
M  CHG  2  12   1  13  -1
M  END
> <Name>
BR020130

$$$$
BR020131
  SciTegic05062102053D

 30 31  0  0  0  0            999 V2000
   -3.1003    0.5846   -6.1005 C   0  0
   -3.3948    0.7194   -7.4572 C   0  0
   -5.2295    1.5792   -5.5395 C   0  0
   -4.0177    1.0145   -5.1416 C   0  0
   -4.6066    1.2840   -7.8551 C   0  0
   -5.5240    1.7140   -6.8963 C   0  0
   -2.4721   -0.9840   -1.4811 C   0  0
   -1.4210    1.0760   -1.5065 C   0  0
   -3.7044    0.8711   -3.6971 C   0  0
   -1.9888   -0.7740   -0.0716 C   0  0
   -1.2935    0.5890   -0.0884 C   0  0
   -4.8911    1.4144   -9.3168 C   0  0
   -2.1478    0.1403   -2.1715 N   0  0
   -6.7652    2.2931   -7.2795 N   0  3
   -6.8291    3.5343   -7.4445 O   0  5
   -3.0492   -1.9836   -1.8802 O   0  0
   -0.9547    2.1220   -1.9307 O   0  0
   -4.4643    1.2273   -2.8095 O   0  0
   -7.7582    1.5452   -7.4412 O   0  0
   -2.4779    0.2920   -3.5044 O   0  0
   -5.3079   -0.3356  -10.0540 Br  0  0
   -2.1529    0.1432   -5.8012 H   0  0
   -2.6738    0.3796   -8.1963 H   0  0
   -5.9423    1.9138   -4.7884 H   0  0
   -2.8392   -0.7778    0.6163 H   0  0
   -1.2925   -1.5712    0.2044 H   0  0
   -0.2366    0.4985    0.1789 H   0  0
   -1.7826    1.2933    0.5908 H   0  0
   -4.0309    1.8036   -9.8708 H   0  0
   -5.7514    2.0625   -9.5129 H   0  0
  1  2  2  0
  1  4  1  0
  2  5  1  0
  3  4  2  0
  3  6  1  0
  4  9  1  0
  5  6  2  0
  5 12  1  0
  6 14  1  0
  7 10  1  0
  7 13  1  0
  7 16  2  0
  8 11  1  0
  8 13  1  0
  8 17  2  0
  9 18  2  0
  9 20  1  0
 10 11  1  0
 12 21  1  0
 13 20  1  0
 14 15  1  0
 14 19  2  0
  1 22  1  0
  2 23  1  0
  3 24  1  0
 10 25  1  0
 10 26  1  0
 11 27  1  0
 11 28  1  0
 12 29  1  0
 12 30  1  0
M  CHG  2  14   1  15  -1
M  END
> <Name>
BR020131

$$$$
BR020132
  SciTegic05062102053D

 28 28  0  0  0  0            999 V2000
    1.8851   -1.0363   -0.1124 C   0  0
    0.8066   -0.4630    0.5610 C   0  0
    2.8783   -1.6520    2.0022 C   0  0
    2.9210   -1.6309    0.6081 C   0  0
    0.7638   -0.4841    1.9551 C   0  0
    1.7997   -1.0786    2.6757 C   0  0
    4.0457   -2.2287   -0.0938 C   0  0
   -0.4059    0.1394    2.6460 C   0  0
    4.8149   -3.3416   -2.2043 C   0  0
    5.5446   -2.2946   -3.0258 C   0  0
    3.8071   -2.7025   -1.3891 N   0  0
    1.7770   -1.1109    4.0974 N   0  3
    2.2972   -0.1639    4.7331 O   0  5
    5.1561   -2.3238    0.4584 O   0  0
    1.2371   -2.0853    4.6725 O   0  0
    4.6212   -1.6446   -3.8901 O   0  0
   -1.9633   -1.0068    2.4447 Br  0  0
    1.9086   -1.0143   -1.1992 H   0  0
    0.0037   -0.0038   -0.0100 H   0  0
    3.6886   -2.1163    2.5608 H   0  0
   -0.6635    1.1147    2.2209 H   0  0
   -0.2316    0.2646    3.7195 H   0  0
    4.3204   -4.0767   -2.8473 H   0  0
    5.5134   -3.8592   -1.5399 H   0  0
    6.3098   -2.7714   -3.6462 H   0  0
    6.0198   -1.5420   -2.3882 H   0  0
    2.8670   -2.6571   -1.7686 H   0  0
    5.1261   -0.9866   -4.3944 H   0  0
  1  2  2  0
  1  4  1  0
  2  5  1  0
  3  4  2  0
  3  6  1  0
  4  7  1  0
  5  6  2  0
  5  8  1  0
  6 12  1  0
  7 11  1  0
  7 14  2  0
  8 17  1  0
  9 10  1  0
  9 11  1  0
 10 16  1  0
 12 13  1  0
 12 15  2  0
  1 18  1  0
  2 19  1  0
  3 20  1  0
  8 21  1  0
  8 22  1  0
  9 23  1  0
  9 24  1  0
 10 25  1  0
 10 26  1  0
 11 27  1  0
 16 28  1  0
M  CHG  2  12   1  13  -1
M  END
> <Name>
BR020132

$$$$
BR020133
  SciTegic05062102053D

 28 29  0  0  0  0            999 V2000
   -3.1006    0.5856   -6.1011 C   0  0
   -5.2298    1.5790   -5.5387 C   0  0
   -3.3956    0.7211   -7.4576 C   0  0
   -5.5249    1.7146   -6.8952 C   0  0
   -4.0177    1.0145   -5.1416 C   0  0
   -4.6077    1.2856   -7.8547 C   0  0
   -3.8430    2.2248   -0.8653 C   0  0
   -4.8936    0.1645   -0.8439 C   0  0
   -3.7044    0.8711   -3.6971 C   0  0
   -3.7132    1.7342    0.5513 C   0  0
   -4.4081    0.3710    0.5655 C   0  0
   -4.9223    1.4314   -9.3054 C   0  0
   -4.4669    1.2376   -1.5596 N   0  0
   -3.4410    3.3045   -1.2704 O   0  0
   -5.5345   -0.8017   -1.2276 O   0  0
   -2.6621    0.3863   -3.2838 O   0  0
   -4.7193    1.3525   -2.9130 O   0  0
   -4.7501    3.1250   -9.8186 Cl  0  0
   -2.1532    0.1444   -5.8022 H   0  0
   -5.9520    1.9167   -4.7999 H   0  0
   -2.6751    0.3845   -8.1984 H   0  0
   -6.4715    2.1561   -7.1957 H   0  0
   -2.6558    1.6440    0.8169 H   0  0
   -4.2022    2.4359    1.2331 H   0  0
   -5.2576    0.3660    1.2547 H   0  0
   -3.7120   -0.4274    0.8384 H   0  0
   -5.9491    1.1127   -9.5283 H   0  0
   -4.2536    0.8198   -9.9255 H   0  0
  1  3  2  0
  1  5  1  0
  2  4  1  0
  2  5  2  0
  3  6  1  0
  4  6  2  0
  5  9  1  0
  6 12  1  0
  7 10  1  0
  7 13  1  0
  7 14  2  0
  8 11  1  0
  8 13  1  0
  8 15  2  0
  9 16  2  0
  9 17  1  0
 10 11  1  0
 12 18  1  0
 13 17  1  0
  1 19  1  0
  2 20  1  0
  3 21  1  0
  4 22  1  0
 10 23  1  0
 10 24  1  0
 11 25  1  0
 11 26  1  0
 12 27  1  0
 12 28  1  0
M  END
> <Name>
BR020133

$$$$
BR020134
  SciTegic05062102053D

 26 26  0  0  0  0            999 V2000
    1.8851   -1.0363   -0.1124 C   0  0
    2.8783   -1.6520    2.0022 C   0  0
    0.8066   -0.4630    0.5610 C   0  0
    1.7997   -1.0786    2.6757 C   0  0
    2.9210   -1.6309    0.6081 C   0  0
    0.7638   -0.4841    1.9551 C   0  0
    4.0464   -2.2285   -0.0930 C   0  0
   -0.3892    0.1300    2.6748 C   0  0
    6.4805   -2.8173    0.0199 C   0  0
    6.5715   -4.3003    0.3299 C   0  0
    5.2674   -2.2765    0.5896 N   0  0
    3.9131   -2.6528   -1.2546 O   0  0
    6.6217   -4.4859    1.7388 O   0  0
    0.0771    1.6873    3.3949 Cl  0  0
    1.9089   -1.0145   -1.1989 H   0  0
    3.6797   -2.1125    2.5740 H   0  0
    0.0041   -0.0017   -0.0084 H   0  0
    1.7748   -1.0992    3.7621 H   0  0
   -0.7528   -0.5206    3.4810 H   0  0
   -1.2360    0.3093    1.9990 H   0  0
    7.3304   -2.2709    0.4410 H   0  0
    6.4510   -2.6554   -1.0619 H   0  0
    7.4882   -4.7171   -0.0986 H   0  0
    5.7107   -4.8481   -0.0670 H   0  0
    5.3368   -1.8590    1.5120 H   0  0
    6.6791   -5.4426    1.8927 H   0  0
  1  3  2  0
  1  5  1  0
  2  4  1  0
  2  5  2  0
  3  6  1  0
  4  6  2  0
  5  7  1  0
  6  8  1  0
  7 11  1  0
  7 12  2  0
  8 14  1  0
  9 10  1  0
  9 11  1  0
 10 13  1  0
  1 15  1  0
  2 16  1  0
  3 17  1  0
  4 18  1  0
  8 19  1  0
  8 20  1  0
  9 21  1  0
  9 22  1  0
 10 23  1  0
 10 24  1  0
 11 25  1  0
 13 26  1  0
M  END
> <Name>
BR020134

$$$$
BR020135
  SciTegic05062102053D

 28 29  0  0  0  0            999 V2000
   -3.1006    0.5856   -6.1011 C   0  0
   -5.2298    1.5790   -5.5387 C   0  0
   -3.3956    0.7211   -7.4576 C   0  0
   -5.5249    1.7146   -6.8952 C   0  0
   -4.0177    1.0145   -5.1416 C   0  0
   -4.6077    1.2856   -7.8547 C   0  0
   -3.8430    2.2248   -0.8653 C   0  0
   -4.8936    0.1645   -0.8439 C   0  0
   -3.7044    0.8711   -3.6971 C   0  0
   -3.7132    1.7342    0.5513 C   0  0
   -4.4081    0.3710    0.5655 C   0  0
   -4.9223    1.4314   -9.3054 C   0  0
   -4.4669    1.2376   -1.5596 N   0  0
   -3.4410    3.3045   -1.2704 O   0  0
   -5.5345   -0.8017   -1.2276 O   0  0
   -2.6621    0.3863   -3.2838 O   0  0
   -4.7193    1.3525   -2.9130 O   0  0
   -4.7645    3.3005   -9.8210 Br  0  0
   -2.1532    0.1444   -5.8022 H   0  0
   -5.9520    1.9167   -4.7999 H   0  0
   -2.6751    0.3845   -8.1984 H   0  0
   -6.4715    2.1561   -7.1957 H   0  0
   -2.6558    1.6440    0.8169 H   0  0
   -4.2022    2.4359    1.2331 H   0  0
   -5.2576    0.3660    1.2547 H   0  0
   -3.7120   -0.4274    0.8384 H   0  0
   -5.9449    1.1166   -9.5422 H   0  0
   -4.2323    0.8626   -9.9392 H   0  0
  1  3  2  0
  1  5  1  0
  2  4  1  0
  2  5  2  0
  3  6  1  0
  4  6  2  0
  5  9  1  0
  6 12  1  0
  7 10  1  0
  7 13  1  0
  7 14  2  0
  8 11  1  0
  8 13  1  0
  8 15  2  0
  9 16  2  0
  9 17  1  0
 10 11  1  0
 12 18  1  0
 13 17  1  0
  1 19  1  0
  2 20  1  0
  3 21  1  0
  4 22  1  0
 10 23  1  0
 10 24  1  0
 11 25  1  0
 11 26  1  0
 12 27  1  0
 12 28  1  0
M  END
> <Name>
BR020135

$$$$
BR020136
  SciTegic05062102053D

 26 26  0  0  0  0            999 V2000
    1.8851   -1.0363   -0.1124 C   0  0
    2.8783   -1.6520    2.0022 C   0  0
    0.8066   -0.4630    0.5610 C   0  0
    1.7997   -1.0786    2.6757 C   0  0
    2.9210   -1.6309    0.6081 C   0  0
    0.7638   -0.4841    1.9551 C   0  0
    4.0464   -2.2285   -0.0930 C   0  0
   -0.3892    0.1300    2.6748 C   0  0
    6.4805   -2.8173    0.0199 C   0  0
    6.5715   -4.3003    0.3299 C   0  0
    5.2674   -2.2765    0.5896 N   0  0
    3.9131   -2.6528   -1.2546 O   0  0
    6.6217   -4.4859    1.7388 O   0  0
    0.1683    1.8090    3.4839 Br  0  0
    1.9089   -1.0145   -1.1989 H   0  0
    3.6797   -2.1125    2.5740 H   0  0
    0.0041   -0.0017   -0.0084 H   0  0
    1.7748   -1.0992    3.7621 H   0  0
   -0.7625   -0.5092    3.4828 H   0  0
   -1.2247    0.3575    2.0028 H   0  0
    7.3304   -2.2709    0.4410 H   0  0
    6.4510   -2.6554   -1.0619 H   0  0
    7.4882   -4.7171   -0.0986 H   0  0
    5.7107   -4.8481   -0.0670 H   0  0
    5.3368   -1.8590    1.5120 H   0  0
    6.6791   -5.4426    1.8927 H   0  0
  1  3  2  0
  1  5  1  0
  2  4  1  0
  2  5  2  0
  3  6  1  0
  4  6  2  0
  5  7  1  0
  6  8  1  0
  7 11  1  0
  7 12  2  0
  8 14  1  0
  9 10  1  0
  9 11  1  0
 10 13  1  0
  1 15  1  0
  2 16  1  0
  3 17  1  0
  4 18  1  0
  8 19  1  0
  8 20  1  0
  9 21  1  0
  9 22  1  0
 10 23  1  0
 10 24  1  0
 11 25  1  0
 13 26  1  0
M  END
> <Name>
BR020136

$$$$
BR020137
  SciTegic05062102053D

 30 31  0  0  0  0            999 V2000
   -3.1003    0.5846   -6.1005 C   0  0
   -3.3948    0.7194   -7.4572 C   0  0
   -5.2295    1.5792   -5.5395 C   0  0
   -4.0177    1.0145   -5.1416 C   0  0
   -4.6066    1.2840   -7.8551 C   0  0
   -5.5240    1.7140   -6.8963 C   0  0
   -2.4721   -0.9840   -1.4811 C   0  0
   -1.4210    1.0760   -1.5065 C   0  0
   -3.7044    0.8711   -3.6971 C   0  0
   -1.9888   -0.7740   -0.0716 C   0  0
   -1.2935    0.5890   -0.0884 C   0  0
   -4.8911    1.4144   -9.3168 C   0  0
   -2.1478    0.1403   -2.1715 N   0  0
   -6.7652    2.2931   -7.2795 N   0  3
   -6.8291    3.5343   -7.4445 O   0  5
   -3.0492   -1.9836   -1.8802 O   0  0
   -0.9547    2.1220   -1.9307 O   0  0
   -4.4643    1.2273   -2.8095 O   0  0
   -7.7582    1.5452   -7.4412 O   0  0
   -2.4779    0.2920   -3.5044 O   0  0
   -2.1529    0.1432   -5.8012 H   0  0
   -2.6738    0.3796   -8.1963 H   0  0
   -5.9423    1.9138   -4.7884 H   0  0
   -2.8392   -0.7778    0.6163 H   0  0
   -1.2925   -1.5712    0.2044 H   0  0
   -0.2366    0.4985    0.1789 H   0  0
   -1.7826    1.2933    0.5908 H   0  0
   -5.3978    0.5156   -9.6855 H   0  0
   -5.5277    2.2839   -9.5194 H   0  0
   -3.9657    1.5548   -9.8883 H   0  0
  1  2  2  0
  1  4  1  0
  2  5  1  0
  3  4  2  0
  3  6  1  0
  4  9  1  0
  5  6  2  0
  5 12  1  0
  6 14  1  0
  7 10  1  0
  7 13  1  0
  7 16  2  0
  8 11  1  0
  8 13  1  0
  8 17  2  0
  9 18  2  0
  9 20  1  0
 10 11  1  0
 13 20  1  0
 14 15  1  0
 14 19  2  0
  1 21  1  0
  2 22  1  0
  3 23  1  0
 10 24  1  0
 10 25  1  0
 11 26  1  0
 11 27  1  0
 12 28  1  0
 12 29  1  0
 12 30  1  0
M  CHG  2  14   1  15  -1
M  END
> <Name>
BR020137

$$$$
BR020138
  SciTegic05062102053D

 28 28  0  0  0  0            999 V2000
    1.8851   -1.0363   -0.1124 C   0  0
    0.8066   -0.4630    0.5610 C   0  0
    2.8783   -1.6520    2.0022 C   0  0
    2.9210   -1.6309    0.6081 C   0  0
    0.7638   -0.4841    1.9551 C   0  0
    1.7997   -1.0786    2.6757 C   0  0
    4.0457   -2.2287   -0.0938 C   0  0
   -0.4059    0.1394    2.6460 C   0  0
    4.8149   -3.3416   -2.2043 C   0  0
    5.5446   -2.2946   -3.0258 C   0  0
    3.8071   -2.7025   -1.3891 N   0  0
    1.7770   -1.1109    4.0974 N   0  3
    2.2972   -0.1639    4.7331 O   0  5
    5.1561   -2.3238    0.4584 O   0  0
    1.2371   -2.0853    4.6725 O   0  0
    4.6212   -1.6446   -3.8901 O   0  0
    1.9086   -1.0143   -1.1992 H   0  0
    0.0037   -0.0038   -0.0100 H   0  0
    3.6886   -2.1163    2.5608 H   0  0
   -1.1988   -0.6025    2.7921 H   0  0
   -0.1181    0.5424    3.6243 H   0  0
   -0.8104    0.9748    2.0618 H   0  0
    4.3204   -4.0767   -2.8473 H   0  0
    5.5134   -3.8592   -1.5399 H   0  0
    6.3098   -2.7714   -3.6462 H   0  0
    6.0198   -1.5420   -2.3882 H   0  0
    2.8670   -2.6571   -1.7686 H   0  0
    5.1261   -0.9866   -4.3944 H   0  0
  1  2  2  0
  1  4  1  0
  2  5  1  0
  3  4  2  0
  3  6  1  0
  4  7  1  0
  5  6  2  0
  5  8  1  0
  6 12  1  0
  7 11  1  0
  7 14  2  0
  9 10  1  0
  9 11  1  0
 10 16  1  0
 12 13  1  0
 12 15  2  0
  1 17  1  0
  2 18  1  0
  3 19  1  0
  8 20  1  0
  8 21  1  0
  8 22  1  0
  9 23  1  0
  9 24  1  0
 10 25  1  0
 10 26  1  0
 11 27  1  0
 16 28  1  0
M  CHG  2  12   1  13  -1
M  END
> <Name>
BR020138

$$$$
BR020139
  SciTegic05062102053D

 19 19  0  0  0  0            999 V2000
    1.8851   -1.0363   -0.1124 C   0  0
    0.8066   -0.4630    0.5610 C   0  0
    2.8783   -1.6520    2.0022 C   0  0
    2.9210   -1.6309    0.6081 C   0  0
    0.7638   -0.4841    1.9551 C   0  0
    1.7997   -1.0786    2.6757 C   0  0
    4.0589   -2.2355   -0.1031 C   0  0
   -0.4061    0.1390    2.6458 C   0  0
    1.7768   -1.1112    4.0974 N   0  3
    5.0026   -2.7779    0.5853 O   0  5
    2.2969   -0.1643    4.7334 O   0  5
    4.0736   -2.2022   -1.3905 O   0  0
    1.2370   -2.0858    4.6722 O   0  0
    0.0478    1.7031    3.3563 Cl  0  0
    1.9087   -1.0145   -1.1989 H   0  0
    0.0045   -0.0024   -0.0098 H   0  0
    3.6885   -2.1166    2.5606 H   0  0
   -0.7834   -0.5041    3.4503 H   0  0
   -1.2365    0.3091    1.9497 H   0  0
  1  2  2  0
  1  4  1  0
  2  5  1  0
  3  4  2  0
  3  6  1  0
  4  7  1  0
  5  6  2  0
  5  8  1  0
  6  9  1  0
  7 10  1  0
  7 12  2  0
  8 14  1  0
  9 11  1  0
  9 13  2  0
  1 15  1  0
  2 16  1  0
  3 17  1  0
  8 18  1  0
  8 19  1  0
M  CHG  3   9   1  10  -1  11  -1
M  END
> <Name>
BR020139

$$$$
BR020140
  SciTegic05062102053D

 32 33  0  0  0  0            999 V2000
    2.0853    1.0190   -0.5850 C   0  0
    2.2006    2.4012   -0.4370 C   0  0
    2.9962    0.7057    1.6307 C   0  0
    2.4831    0.1713    0.4488 C   0  0
    2.7137    2.9356    0.7448 C   0  0
    3.1115    2.0879    1.7787 C   0  0
    2.3618   -1.2844    0.2932 C   0  0
    4.7151   -1.3883   -0.6814 C   0  0
    3.3312   -3.4168   -0.4985 C   0  0
    5.8852   -2.2075   -0.1500 C   0  0
    4.5559   -4.1453    0.0351 C   0  0
    2.8245    4.4210    0.8711 C   0  0
    3.4432   -1.9805   -0.2496 N   0  0
    3.6380    2.6112    2.9919 N   0  3
    4.8746    2.7945    3.0862 O   0  5
    1.2973   -1.7844    0.6540 O   0  0
    2.8498    2.8737    3.9307 O   0  0
    5.7459   -3.5808   -0.5224 O   0  0
    4.5152    4.9388    0.6966 Cl  0  0
    1.6842    0.6129   -1.5103 H   0  0
    1.8862    3.0530   -1.2481 H   0  0
    3.3060    0.0410    2.4347 H   0  0
    4.8095   -0.3474   -0.3631 H   0  0
    4.7083   -1.4100   -1.7775 H   0  0
    3.2614   -3.5392   -1.5859 H   0  0
    2.4176   -3.8213   -0.0522 H   0  0
    6.8246   -1.8382   -0.5730 H   0  0
    5.9582   -2.1359    0.9417 H   0  0
    4.6087   -4.0929    1.1291 H   0  0
    4.5188   -5.2014   -0.2491 H   0  0
    2.4611    4.7666    1.8466 H   0  0
    2.2304    4.9321    0.1037 H   0  0
  1  2  2  0
  1  4  1  0
  2  5  1  0
  3  4  2  0
  3  6  1  0
  4  7  1  0
  5  6  2  0
  5 12  1  0
  6 14  1  0
  7 13  1  0
  7 16  2  0
  8 10  1  0
  8 13  1  0
  9 11  1  0
  9 13  1  0
 10 18  1  0
 11 18  1  0
 12 19  1  0
 14 15  1  0
 14 17  2  0
  1 20  1  0
  2 21  1  0
  3 22  1  0
  8 23  1  0
  8 24  1  0
  9 25  1  0
  9 26  1  0
 10 27  1  0
 10 28  1  0
 11 29  1  0
 11 30  1  0
 12 31  1  0
 12 32  1  0
M  CHG  2  14   1  15  -1
M  END
> <Name>
BR020140

$$$$
BR020141
  SciTegic05062102053D

 30 30  0  0  0  0            999 V2000
    3.9822   -0.9176   -4.7661 C   0  0
    4.2254   -1.4764   -6.0207 C   0  0
    1.6403   -1.4746   -4.9719 C   0  0
    2.6896   -0.9167   -4.2417 C   0  0
    3.1761   -2.0344   -6.7510 C   0  0
    1.8835   -2.0335   -6.2266 C   0  0
    2.4303   -0.3215   -2.9054 C   0  0
    5.1545    1.9788   -1.0894 C   0  0
    3.4706   -2.6247   -8.0924 C   0  0
    3.7436    1.6779   -0.6040 C   0  0
    3.3982    0.1955   -0.6801 C   0  0
    3.4995   -0.3221   -2.0165 N   0  0
    0.7987   -2.5963   -6.9542 N   0  3
    0.1470   -1.8624   -7.7342 O   0  5
    1.3101    0.1118   -2.6487 O   0  0
    0.5268   -3.8095   -6.7940 O   0  0
    2.9049   -1.5473   -9.3871 Cl  0  0
    4.8072   -0.4853   -4.2053 H   0  0
    5.2366   -1.4735   -6.4195 H   0  0
    0.6332   -1.4715   -4.5596 H   0  0
    5.8974    1.4361   -0.4963 H   0  0
    5.2666    1.6725   -2.1344 H   0  0
    5.3782    3.0483   -1.0276 H   0  0
    2.9773   -3.5963   -8.2176 H   0  0
    4.5467   -2.7867   -8.2296 H   0  0
    3.0334    2.2390   -1.2223 H   0  0
    3.6325    2.0379    0.4257 H   0  0
    4.0905   -0.3826   -0.0599 H   0  0
    2.3811    0.0056   -0.3232 H   0  0
    4.3796   -0.7584   -2.2862 H   0  0
  1  2  2  0
  1  4  1  0
  2  5  1  0
  3  4  2  0
  3  6  1  0
  4  7  1  0
  5  6  2  0
  5  9  1  0
  6 13  1  0
  7 12  1  0
  7 15  2  0
  8 10  1  0
  9 17  1  0
 10 11  1  0
 11 12  1  0
 13 14  1  0
 13 16  2  0
  1 18  1  0
  2 19  1  0
  3 20  1  0
  8 21  1  0
  8 22  1  0
  8 23  1  0
  9 24  1  0
  9 25  1  0
 10 26  1  0
 10 27  1  0
 11 28  1  0
 11 29  1  0
 12 30  1  0
M  CHG  2  13   1  14  -1
M  END
> <Name>
BR020141

$$$$
BR020142
  SciTegic05062102053D

 27 27  0  0  0  0            999 V2000
    1.8851   -1.0363   -0.1124 C   0  0
    0.8066   -0.4630    0.5610 C   0  0
    2.8783   -1.6520    2.0022 C   0  0
    2.9210   -1.6309    0.6081 C   0  0
    0.7638   -0.4841    1.9551 C   0  0
    1.7997   -1.0786    2.6757 C   0  0
    4.0457   -2.2287   -0.0938 C   0  0
   -0.4059    0.1394    2.6460 C   0  0
    4.8149   -3.3416   -2.2043 C   0  0
    5.5895   -2.3516   -3.0578 C   0  0
    3.8071   -2.7025   -1.3891 N   0  0
    1.7770   -1.1109    4.0974 N   0  3
    2.2972   -0.1639    4.7331 O   0  5
    5.1561   -2.3238    0.4584 O   0  0
    1.2371   -2.0853    4.6725 O   0  0
    0.0487    1.7033    3.3564 Cl  0  0
    4.5100   -1.4652   -4.1627 Cl  0  0
    1.9086   -1.0143   -1.1992 H   0  0
    0.0037   -0.0038   -0.0100 H   0  0
    3.6886   -2.1163    2.5608 H   0  0
   -0.7833   -0.5036    3.4504 H   0  0
   -1.2363    0.3098    1.9498 H   0  0
    5.4800   -3.9007   -1.5382 H   0  0
    4.2940   -4.0597   -2.8454 H   0  0
    6.3467   -2.8546   -3.6668 H   0  0
    6.0864   -1.6106   -2.4249 H   0  0
    2.8670   -2.6571   -1.7686 H   0  0
  1  2  2  0
  1  4  1  0
  2  5  1  0
  3  4  2  0
  3  6  1  0
  4  7  1  0
  5  6  2  0
  5  8  1  0
  6 12  1  0
  7 11  1  0
  7 14  2  0
  8 16  1  0
  9 10  1  0
  9 11  1  0
 10 17  1  0
 12 13  1  0
 12 15  2  0
  1 18  1  0
  2 19  1  0
  3 20  1  0
  8 21  1  0
  8 22  1  0
  9 23  1  0
  9 24  1  0
 10 25  1  0
 10 26  1  0
 11 27  1  0
M  CHG  2  12   1  13  -1
M  END
> <Name>
BR020142

$$$$
BR020143
  SciTegic05062102053D

 39 39  0  0  0  0            999 V2000
    2.6822    3.4874    5.2218 C   0  0
    2.4353    4.8602    5.2203 C   0  0
    2.5088    3.4537    2.8122 C   0  0
    2.7190    2.7841    4.0177 C   0  0
    2.2251    5.5298    4.0149 C   0  0
    2.2619    4.8265    2.8108 C   0  0
    2.9820    1.3220    4.0189 C   0  0
    1.9620   -1.2991    8.1142 C   0  0
    0.9810   -0.4789   11.7633 C   0  0
    1.9626    7.0010    4.0483 C   0  0
    1.9789   -0.5992    9.4540 C   0  0
    0.9328   -1.1680   10.4094 C   0  0
    4.0847   -0.5511    5.2155 C   0  0
    3.0063   -1.2852    5.9911 C   0  0
    3.7163    0.8770    5.0828 N   0  0
    2.0496    5.4889    1.5701 N   0  3
    0.8819    5.5770    1.1226 O   0  5
    2.5592    0.6355    3.0924 O   0  0
    1.2231   -2.2258    7.8114 O   0  0
    3.0366    5.9652    0.9614 O   0  0
    2.9021   -0.7268    7.3049 O   0  0
    0.2422    7.3357    3.7561 Cl  0  0
    2.8446    2.9753    6.1669 H   0  0
    2.4104    5.3991    6.1640 H   0  0
    2.5378    2.9014    1.8750 H   0  0
    1.9754   -0.5858   12.2080 H   0  0
    0.7647    0.5900   11.6675 H   0  0
    0.2519   -0.9171   12.4525 H   0  0
    2.5469    7.5279    3.2842 H   0  0
    2.2337    7.4328    5.0195 H   0  0
    2.9783   -0.7162    9.8882 H   0  0
    1.7849    0.4660    9.2855 H   0  0
   -0.0693   -1.0508    9.9795 H   0  0
    1.0949   -2.2440   10.5446 H   0  0
    5.0509   -0.6100    5.7266 H   0  0
    4.1848   -0.9724    4.2106 H   0  0
    3.2717   -2.3420    6.0933 H   0  0
    2.0321   -1.2079    5.4975 H   0  0
    4.0945    1.4813    5.7827 H   0  0
  1  2  2  0
  1  4  1  0
  2  5  1  0
  3  4  2  0
  3  6  1  0
  4  7  1  0
  5  6  2  0
  5 10  1  0
  6 16  1  0
  7 15  1  0
  7 18  2  0
  8 11  1  0
  8 19  2  0
  8 21  1  0
  9 12  1  0
 10 22  1  0
 11 12  1  0
 13 14  1  0
 13 15  1  0
 14 21  1  0
 16 17  1  0
 16 20  2  0
  1 23  1  0
  2 24  1  0
  3 25  1  0
  9 26  1  0
  9 27  1  0
  9 28  1  0
 10 29  1  0
 10 30  1  0
 11 31  1  0
 11 32  1  0
 12 33  1  0
 12 34  1  0
 13 35  1  0
 13 36  1  0
 14 37  1  0
 14 38  1  0
 15 39  1  0
M  CHG  2  16   1  17  -1
M  END
> <Name>
BR020143

$$$$
BR020144
  SciTegic05062102053D

 81 81  0  0  0  0            999 V2000
    4.5391   -6.5338    0.5697 C   0  0
    3.8947   -7.2203    1.5988 C   0  0
    3.9567   -4.4312    1.6075 C   0  0
    4.5701   -5.1392    0.5740 C   0  0
    3.2813   -6.5123    2.6322 C   0  0
    3.3123   -5.1177    2.6366 C   0  0
   -0.6216   -4.7357    0.7148 C   0  0
   -0.3652   -3.0148   -1.1373 C   0  0
   -1.3017   -5.8694    0.4862 C   0  0
   -0.5205   -1.7176   -0.8277 C   0  0
   -0.2182   -7.7230   -0.8785 C   0  0
   -1.2113   -0.5571    1.2471 C   0  0
   -0.3471   -8.9961   -0.4722 C   0  0
   -1.6552    0.7037    1.1340 C   0  0
   -2.2029  -10.6228   -0.7138 C   0  0
    0.0421    2.4913    0.8880 C   0  0
   -2.4557  -11.8974   -0.3782 C   0  0
    1.3307    2.5647    0.5192 C   0  0
    5.2564   -4.4078   -0.5220 C   0  0
    3.7639    0.2119   -1.3772 C   0  0
   -0.8016  -13.1916    0.9647 C   0  0
    2.5990   -7.2782    3.7195 C   0  0
    0.2786   -4.0821   -0.2931 C   0  0
   -1.2463   -6.6258   -0.8088 C   0  0
   -0.0560   -1.1063    0.4632 C   0  0
   -1.5988   -9.5497    0.1451 C   0  0
   -1.0488    1.7161    0.2093 C   0  0
   -2.1891  -12.5697    0.9361 C   0  0
    1.9802    1.8780   -0.6508 C   0  0
    3.1299    0.9617   -0.2247 C   0  0
    6.4199   -2.3110   -1.1590 C   0  0
    5.4020   -1.4266   -1.8557 C   0  0
    5.7337   -3.1756   -0.1718 N   0  0
    2.6928   -4.3756    3.6800 N   0  3
    1.4924   -4.0374    3.5523 O   0  5
    5.3311   -4.9248   -1.6336 O   0  0
    3.4653    0.3401   -2.5563 O   0  0
    3.3656   -4.0823    4.6963 O   0  0
    4.7145   -0.6349   -0.8816 O   0  0
    0.8344   -7.2002    3.5264 Cl  0  0
    5.0140   -7.0954   -0.2311 H   0  0
    3.8778   -8.3071    1.5868 H   0  0
    3.9826   -3.3433    1.6070 H   0  0
   -0.7115   -4.2461    1.6820 H   0  0
   -0.7544   -3.3648   -2.0919 H   0  0
   -1.9357   -6.2792    1.2690 H   0  0
   -0.9906   -1.0409   -1.5362 H   0  0
    0.7409   -7.4134   -1.2906 H   0  0
   -1.7127   -1.2397    1.9296 H   0  0
    0.4799   -9.6923   -0.5811 H   0  0
   -2.4906    1.0327    1.7466 H   0  0
   -2.4669  -10.3176   -1.7256 H   0  0
   -0.2546    3.0429    1.7787 H   0  0
   -2.9080  -12.5290   -1.1411 H   0  0
    1.9854    3.1803    1.1332 H   0  0
   -0.6805  -13.8847    0.1261 H   0  0
   -0.0226  -12.4264    0.8830 H   0  0
   -0.6378  -13.7504    1.8924 H   0  0
    2.8516   -6.8775    4.7088 H   0  0
    2.8965   -8.3339    3.7112 H   0  0
    0.7251   -4.8280   -0.9621 H   0  0
    1.1113   -3.6266    0.2571 H   0  0
   -1.0652   -5.9383   -1.6445 H   0  0
   -2.2353   -7.0664   -0.9845 H   0  0
    0.6694   -0.3174    0.2308 H   0  0
    0.4678   -1.8421    1.0846 H   0  0
   -1.3591   -9.9113    1.1491 H   0  0
   -2.3503   -8.7626    0.2838 H   0  0
   -1.8308    2.4171   -0.1071 H   0  0
   -0.6870    1.2504   -0.7138 H   0  0
   -2.2861  -11.8830    1.7809 H   0  0
   -2.9405  -13.3539    1.0844 H   0  0
    1.2535    1.2762   -1.2050 H   0  0
    2.3385    2.6441   -1.3489 H   0  0
    3.9071    1.5370    0.2917 H   0  0
    2.7345    0.2100    0.4688 H   0  0
    6.9419   -2.9546   -1.8742 H   0  0
    7.1537   -1.6996   -0.6252 H   0  0
    4.6611   -2.0439   -2.3732 H   0  0
    5.8784   -0.7581   -2.5801 H   0  0
    5.5953   -2.7666    0.7292 H   0  0
  1  2  2  0
  1  4  1  0
  2  5  1  0
  3  4  2  0
  3  6  1  0
  4 19  1  0
  5  6  2  0
  5 22  1  0
  6 34  1  0
  7  9  2  0
  7 23  1  0
  8 10  2  0
  8 23  1  0
  9 24  1  0
 10 25  1  0
 11 13  2  0
 11 24  1  0
 12 14  2  0
 12 25  1  0
 13 26  1  0
 14 27  1  0
 15 17  2  0
 15 26  1  0
 16 18  2  0
 16 27  1  0
 17 28  1  0
 18 29  1  0
 19 33  1  0
 19 36  2  0
 20 30  1  0
 20 37  2  0
 20 39  1  0
 21 28  1  0
 22 40  1  0
 29 30  1  0
 31 32  1  0
 31 33  1  0
 32 39  1  0
 34 35  1  0
 34 38  2  0
  1 41  1  0
  2 42  1  0
  3 43  1  0
  7 44  1  0
  8 45  1  0
  9 46  1  0
 10 47  1  0
 11 48  1  0
 12 49  1  0
 13 50  1  0
 14 51  1  0
 15 52  1  0
 16 53  1  0
 17 54  1  0
 18 55  1  0
 21 56  1  0
 21 57  1  0
 21 58  1  0
 22 59  1  0
 22 60  1  0
 23 61  1  0
 23 62  1  0
 24 63  1  0
 24 64  1  0
 25 65  1  0
 25 66  1  0
 26 67  1  0
 26 68  1  0
 27 69  1  0
 27 70  1  0
 28 71  1  0
 28 72  1  0
 29 73  1  0
 29 74  1  0
 30 75  1  0
 30 76  1  0
 31 77  1  0
 31 78  1  0
 32 79  1  0
 32 80  1  0
 33 81  1  0
M  CHG  2  34   1  35  -1
M  END
> <Name>
BR020144

$$$$
BR020145
  SciTegic05062102053D

 42 43  0  0  0  0            999 V2000
   -0.4214    3.9687   -0.4019 C   0  0
   -0.7273    2.9500   -1.3042 C   0  0
   -1.5851    2.7714    1.3444 C   0  0
   -0.8502    3.8794    0.9225 C   0  0
   -1.4621    1.8420   -0.8823 C   0  0
   -1.8910    1.7527    0.4420 C   0  0
   -0.5314    4.9414    1.8635 C   0  0
    0.4611   -0.2947   -2.2313 C   0  0
   -1.5929   -1.6945   -2.2865 C   0  0
    1.2429   -1.5670   -1.9516 C   0  0
   -0.7049   -2.8945   -2.0044 C   0  0
   -1.7745    0.7642   -1.8782 C   0  0
    1.0854    6.7611    2.4627 C   0  0
    0.4752    8.0741    2.0074 C   0  0
    0.6236    5.6901    1.6093 N   0  0
   -2.6420    0.6324    0.8936 N   0  3
   -0.9389   -0.4695   -1.6916 N   0  3
   -3.8928    0.6718    0.8188 O   0  5
   -1.2548    5.1448    2.8547 O   0  0
   -2.0307   -0.3611    1.3525 O   0  0
    0.5993   -2.6925   -2.5508 O   0  0
    0.8947    8.3538    0.6778 O   0  0
    0.1519    4.8280   -0.7412 H   0  0
   -0.3868    3.0286   -2.3336 H   0  0
   -1.9184    2.7057    2.3782 H   0  0
    0.9089    0.5681   -1.7290 H   0  0
    0.3707   -0.1045   -3.3064 H   0  0
   -1.6974   -1.5131   -3.3617 H   0  0
   -2.5772   -1.8077   -1.8221 H   0  0
    2.2448   -1.4882   -2.3850 H   0  0
    1.3616   -1.7416   -0.8754 H   0  0
   -0.6251   -3.0962   -0.9295 H   0  0
   -1.1277   -3.7867   -2.4770 H   0  0
   -2.8210    0.4492   -1.8054 H   0  0
   -1.6005    1.1100   -2.9028 H   0  0
    2.1784    6.7929    2.4123 H   0  0
    0.7806    6.5352    3.4890 H   0  0
    0.8206    8.8905    2.6493 H   0  0
   -0.6188    8.0394    2.0315 H   0  0
    1.2124    5.4415    0.8211 H   0  0
   -0.8622   -0.6224   -0.6764 H   0  0
    0.4844    9.1969    0.4268 H   0  0
  1  2  2  0
  1  4  1  0
  2  5  1  0
  3  4  2  0
  3  6  1  0
  4  7  1  0
  5  6  2  0
  5 12  1  0
  6 16  1  0
  7 15  1  0
  7 19  2  0
  8 10  1  0
  8 17  1  0
  9 11  1  0
  9 17  1  0
 10 21  1  0
 11 21  1  0
 12 17  1  0
 13 14  1  0
 13 15  1  0
 14 22  1  0
 16 18  1  0
 16 20  2  0
  1 23  1  0
  2 24  1  0
  3 25  1  0
  8 26  1  0
  8 27  1  0
  9 28  1  0
  9 29  1  0
 10 30  1  0
 10 31  1  0
 11 32  1  0
 11 33  1  0
 12 34  1  0
 12 35  1  0
 13 36  1  0
 13 37  1  0
 14 38  1  0
 14 39  1  0
 15 40  1  0
 17 41  1  0
 22 42  1  0
M  CHG  3  16   1  17   1  18  -1
M  END
> <Name>
BR020145

$$$$
BR020146
  SciTegic05062102053D

 48 50  0  0  1  0            999 V2000
    2.5173   -8.6874   -3.2134 C   0  0
    3.1529   -8.5041   -4.4387 C   0  0
   -3.4260   -1.6944   -5.6053 C   0  0
    1.5035   -7.8159   -2.8162 C   0  0
    2.7723   -7.4518   -5.2709 C   0  0
   -2.0831   -2.0674   -5.5512 C   0  0
   -3.8574   -3.4757   -7.1795 C   0  0
   -4.3132   -2.3986   -6.4194 C   0  0
    1.1206   -6.7476   -3.6393 C   0  0
    1.7485   -6.5757   -4.8853 C   0  0
   -1.6272   -3.1445   -6.3113 C   0  0
   -2.5144   -3.8487   -7.1255 C   0  0
   -5.7135   -2.0100   -6.4759 C   0  0
   -0.0021   -5.8394   -3.2065 C   0  0
    1.3745   -5.4313   -5.7872 C   0  0
   -0.0103   -4.5010   -3.9371 C   0  0
   -0.1767   -3.5193   -6.2307 C   0  0
   -7.6193   -0.9471   -5.2417 C   0  0
   -7.7550    0.4733   -5.7591 C   0  0
   -6.2420   -1.3721   -5.3476 N   0  0
   -2.0712   -4.9496   -7.9093 N   0  3
    0.0662   -4.7607   -5.4204 N   0  3
   -1.6600   -4.7369   -9.0744 O   0  5
   -6.3983   -2.2614   -7.4833 O   0  0
   -2.1046   -6.0997   -7.4117 O   0  0
   -6.9597    1.3434   -4.9640 O   0  0
    2.8103   -9.5096   -2.5670 H   0  0
    3.9445   -9.1808   -4.7471 H   0  0
   -3.7708   -0.8533   -5.0089 H   0  0
    1.0121   -7.9745   -1.8595 H   0  0
    3.2779   -7.3185   -6.2241 H   0  0
   -1.4004   -1.5131   -4.9123 H   0  0
   -4.5525   -4.0222   -7.8138 H   0  0
   -0.9503   -6.3617   -3.3853 H   0  0
    0.0701   -5.6469   -2.1293 H   0  0
    2.1544   -4.6619   -5.7433 H   0  0
    1.2567   -5.7796   -6.8194 H   0  0
   -0.9398   -3.9579   -3.7366 H   0  0
    0.8470   -3.8739   -3.6661 H   0  0
    0.2396   -3.7071   -7.2262 H   0  0
    0.4129   -2.7209   -5.7675 H   0  0
   -7.9202   -1.0174   -4.1916 H   0  0
   -8.2336   -1.6296   -5.8369 H   0  0
   -8.7960    0.8023   -5.6821 H   0  0
   -7.4311    0.5546   -6.8018 H   0  0
   -5.6564   -1.2478   -4.5282 H   0  0
   -0.6911   -5.4172   -5.6558 H   0  0
   -7.0745    2.2365   -5.3267 H   0  0
  1  2  1  0
  1  4  2  0
  2  5  2  0
  3  6  1  0
  3  8  2  0
  4  9  1  0
  5 10  1  0
  6 11  2  0
  7  8  1  0
  7 12  2  0
  8 13  1  0
  9 10  2  0
  9 14  1  0
 10 15  1  0
 11 12  1  0
 11 17  1  0
 12 21  1  0
 13 20  1  0
 13 24  2  0
 14 16  1  0
 15 22  1  0
 16 22  1  0
 17 22  1  0
 18 19  1  0
 18 20  1  0
 19 26  1  0
 21 23  1  0
 21 25  2  0
  1 27  1  0
  2 28  1  0
  3 29  1  0
  4 30  1  0
  5 31  1  0
  6 32  1  0
  7 33  1  0
 14 34  1  0
 14 35  1  0
 15 36  1  0
 15 37  1  0
 16 38  1  0
 16 39  1  0
 17 40  1  0
 17 41  1  0
 18 42  1  0
 18 43  1  0
 19 44  1  0
 19 45  1  0
 20 46  1  0
 22 47  1  0
 26 48  1  0
M  CHG  3  21   1  22   1  23  -1
M  END
> <Name>
BR020146

$$$$
BR020147
  SciTegic05062102053D

 30 30  0  0  0  0            999 V2000
    1.8851   -1.0363   -0.1124 C   0  0
    0.8066   -0.4630    0.5610 C   0  0
    2.8783   -1.6520    2.0022 C   0  0
    2.9210   -1.6309    0.6081 C   0  0
    0.7638   -0.4841    1.9551 C   0  0
    1.7997   -1.0786    2.6757 C   0  0
    4.0457   -2.2287   -0.0938 C   0  0
   -0.4059    0.1394    2.6460 C   0  0
    4.8149   -3.3416   -2.2043 C   0  0
    5.5446   -2.2946   -3.0258 C   0  0
   -3.3282   -0.0113    4.1721 N   0  5
   -1.3577   -0.8633    3.1366 N   0  0
   -2.3834   -0.4140    3.6757 N   0  3
    3.8071   -2.7025   -1.3891 N   0  0
    1.7770   -1.1109    4.0974 N   0  3
    2.2972   -0.1639    4.7331 O   0  5
    5.1561   -2.3238    0.4584 O   0  0
    1.2371   -2.0853    4.6725 O   0  0
    4.6212   -1.6446   -3.8901 O   0  0
    1.9086   -1.0143   -1.1992 H   0  0
    0.0037   -0.0038   -0.0100 H   0  0
    3.6886   -2.1163    2.5608 H   0  0
   -0.0697    0.7586    3.4896 H   0  0
   -0.9343    0.8217    1.9658 H   0  0
    4.3204   -4.0767   -2.8473 H   0  0
    5.5134   -3.8592   -1.5399 H   0  0
    6.3098   -2.7714   -3.6462 H   0  0
    6.0198   -1.5420   -2.3882 H   0  0
    2.8670   -2.6571   -1.7686 H   0  0
    5.1261   -0.9866   -4.3944 H   0  0
  1  2  2  0
  1  4  1  0
  2  5  1  0
  3  4  2  0
  3  6  1  0
  4  7  1  0
  5  6  2  0
  5  8  1  0
  6 15  1  0
  7 14  1  0
  7 17  2  0
  8 12  1  0
  9 10  1  0
  9 14  1  0
 10 19  1  0
 11 13  2  0
 12 13  2  0
 15 16  1  0
 15 18  2  0
  1 20  1  0
  2 21  1  0
  3 22  1  0
  8 23  1  0
  8 24  1  0
  9 25  1  0
  9 26  1  0
 10 27  1  0
 10 28  1  0
 14 29  1  0
 19 30  1  0
M  CHG  4  11  -1  13   1  15   1  16  -1
M  END
> <Name>
BR020147

$$$$
BR020148
  SciTegic05062102053D

 41 42  0  0  0  0            999 V2000
    1.8851   -1.0363   -0.1124 C   0  0
    0.8066   -0.4630    0.5610 C   0  0
    2.8783   -1.6520    2.0022 C   0  0
   -1.7612   -1.0390    4.4382 C   0  0
    2.9210   -1.6309    0.6081 C   0  0
    0.7638   -0.4841    1.9551 C   0  0
    1.7997   -1.0786    2.6757 C   0  0
   -2.6138   -2.1111    4.3569 C   0  0
    4.0457   -2.2287   -0.0938 C   0  0
   -0.4059    0.1394    2.6460 C   0  0
   -3.3846   -2.7625    5.4239 C   0  0
    4.8149   -3.3416   -2.2043 C   0  0
   -2.6393   -3.9163    6.1184 C   0  0
    5.5446   -2.2946   -3.0258 C   0  0
   -2.6807   -2.5480    3.0630 N   0  0
   -1.8879   -1.7743    2.3295 N   0  0
   -1.3375   -0.8703    3.1559 N   0  0
    3.8071   -2.7025   -1.3891 N   0  0
    1.7770   -1.1109    4.0974 N   0  3
    2.2972   -0.1639    4.7331 O   0  5
    5.1561   -2.3238    0.4584 O   0  0
    1.2371   -2.0853    4.6725 O   0  0
   -1.4577   -3.4144    6.7298 O   0  0
    4.6212   -1.6446   -3.8901 O   0  0
    1.9086   -1.0143   -1.1992 H   0  0
    0.0037   -0.0038   -0.0100 H   0  0
    3.6886   -2.1163    2.5608 H   0  0
   -1.4355   -0.4110    5.2554 H   0  0
   -0.0902    0.7643    3.4949 H   0  0
   -0.9678    0.8046    1.9731 H   0  0
   -3.6886   -2.0324    6.2017 H   0  0
   -4.3352   -3.1720    5.0265 H   0  0
    4.3204   -4.0767   -2.8473 H   0  0
    5.5134   -3.8592   -1.5399 H   0  0
   -3.2578   -4.3646    6.9027 H   0  0
   -2.3619   -4.6951    5.4005 H   0  0
    6.3098   -2.7714   -3.6462 H   0  0
    6.0198   -1.5420   -2.3882 H   0  0
    2.8670   -2.6571   -1.7686 H   0  0
   -1.0200   -4.1699    7.1541 H   0  0
    5.1261   -0.9866   -4.3944 H   0  0
  1  2  2  0
  1  5  1  0
  2  6  1  0
  3  5  2  0
  3  7  1  0
  4  8  2  0
  4 17  1  0
  5  9  1  0
  6  7  2  0
  6 10  1  0
  7 19  1  0
  8 11  1  0
  8 15  1  0
  9 18  1  0
  9 21  2  0
 10 17  1  0
 11 13  1  0
 12 14  1  0
 12 18  1  0
 13 23  1  0
 14 24  1  0
 15 16  2  0
 16 17  1  0
 19 20  1  0
 19 22  2  0
  1 25  1  0
  2 26  1  0
  3 27  1  0
  4 28  1  0
 10 29  1  0
 10 30  1  0
 11 31  1  0
 11 32  1  0
 12 33  1  0
 12 34  1  0
 13 35  1  0
 13 36  1  0
 14 37  1  0
 14 38  1  0
 18 39  1  0
 23 40  1  0
 24 41  1  0
M  CHG  2  19   1  20  -1
M  END
> <Name>
BR020148

$$$$
BR020149
  SciTegic05062102053D

 16 15  0  0  0  0            999 V2000
    0.4258    1.1051   -0.2644 C   0  0
   -0.3476   -1.3162   -0.4104 C   0  0
    0.1152   -0.1806    0.4996 C   0  0
    1.9406    4.0339   -0.4025 N   0  5
   -2.5111   -2.6015   -2.5456 N   0  5
    1.2711    1.9646    0.5722 N   0  0
   -1.5786   -0.9401   -1.1129 N   0  0
    1.6175    3.0423    0.0593 N   0  3
   -2.0611   -1.8097   -1.8589 N   0  3
   -0.9058    0.0679    1.4651 O   0  0
   -0.4889    1.6575   -0.5022 H   0  0
    0.9581    0.8885   -1.1963 H   0  0
    0.4256   -1.5574   -1.1469 H   0  0
   -0.5524   -2.2147    0.1814 H   0  0
    1.0031   -0.5174    1.0481 H   0  0
   -1.0646   -0.7735    1.9193 H   0  0
  1  3  1  0
  1  6  1  0
  2  3  1  0
  2  7  1  0
  3 10  1  0
  4  8  2  0
  5  9  2  0
  6  8  2  0
  7  9  2  0
  1 11  1  0
  1 12  1  0
  2 13  1  0
  2 14  1  0
  3 15  1  0
 10 16  1  0
M  CHG  4   4  -1   5  -1   8   1   9   1
M  END
> <Name>
BR020149

$$$$
BR020150
  SciTegic05062102053D

 18 17  0  0  0  0            999 V2000
   -0.3679    0.9984    0.2541 C   0  0
   -1.8846    0.4402    2.2257 C   0  0
   -1.7925    0.9768    0.7982 C   0  0
   -0.3784    1.5855   -1.1119 N   0  3
   -1.4274   -0.9703    2.2937 N   0  3
   -2.6018    0.1731   -0.0603 O   0  0
    0.2951    1.6261    0.8560 H   0  0
    0.0544   -0.0045    0.1421 H   0  0
   -2.9184    0.4385    2.5843 H   0  0
   -1.2558    1.0095    2.9163 H   0  0
   -2.2107    1.9905    0.7836 H   0  0
    0.5716    1.6413   -1.4910 H   0  0
   -0.7719    2.5314   -1.0975 H   0  0
   -0.9428    1.0149   -1.7486 H   0  0
   -1.6915   -1.3982    3.1872 H   0  0
   -0.4075   -1.0287    2.2039 H   0  0
   -1.8442   -1.5270    1.5403 H   0  0
   -3.4947    0.1836    0.3163 H   0  0
  1  3  1  0
  1  4  1  0
  2  3  1  0
  2  5  1  0
  3  6  1  0
  1  7  1  0
  1  8  1  0
  2  9  1  0
  2 10  1  0
  3 11  1  0
  4 12  1  0
  4 13  1  0
  4 14  1  0
  5 15  1  0
  5 16  1  0
  5 17  1  0
  6 18  1  0
M  CHG  2   4   1   5   1
M  END
> <Name>
BR020150

$$$$
BR020151
  SciTegic05062102053D

 50 51  0  0  1  0            999 V2000
    0.1646   -3.0854   -3.6020 C   0  0
    5.6806   -3.2236    3.2018 C   0  0
   -0.0786   -3.7991   -4.7755 C   0  0
    6.8748   -3.2299    3.9226 C   0  0
   -0.4545   -1.0354   -4.7205 C   0  0
    4.5069   -2.4169    5.1534 C   0  0
   -0.0234   -1.7035   -3.5745 C   0  0
    4.4967   -2.8170    3.8172 C   0  0
   -0.5097   -3.1310   -5.9215 C   0  0
    6.8850   -2.8297    5.2588 C   0  0
   -0.6977   -1.7491   -5.8940 C   0  0
    5.7010   -2.4232    5.8742 C   0  0
    0.2356   -0.9432   -2.3248 C   0  0
    3.2246   -2.8102    3.0497 C   0  0
   -0.7609   -3.9252   -7.1627 C   0  0
    8.1813   -2.8486    6.0029 C   0  0
    0.2805   -1.0469    0.1538 C   0  0
    2.2009   -2.5921    0.8002 C   0  0
    1.7241   -1.1474    0.6489 C   0  0  1  0  0  0
    0.0884   -1.6503   -1.1379 N   0  0
    3.3478   -2.6447    1.6799 N   0  0
   -1.1361   -1.0474   -7.0509 N   0  3
    5.6883   -2.0118    7.2357 N   0  3
   -0.2790   -0.6009   -7.8495 O   0  5
    5.4894   -2.8715    8.1263 O   0  5
    0.5385    0.2449   -2.3971 O   0  0
    2.1603   -2.9271    3.6513 O   0  0
   -2.3665   -0.8967   -7.2378 O   0  0
    5.8766   -0.8020    7.5045 O   0  0
    2.5861   -0.4717   -0.2667 O   0  0
    0.5524   -3.6848   -8.3350 Cl  0  0
    8.2417   -4.2304    7.1182 Cl  0  0
    0.5005   -3.6160   -2.7145 H   0  0
    5.6838   -3.5375    2.1609 H   0  0
    0.0693   -4.8760   -4.7858 H   0  0
    7.7921   -3.5469    3.4332 H   0  0
   -0.5994    0.0429   -4.6952 H   0  0
    3.5810   -2.1009    5.6301 H   0  0
   -1.7030   -3.6307   -7.6410 H   0  0
   -0.8297   -4.9977   -6.9431 H   0  0
    8.3184   -1.9315    6.5887 H   0  0
    9.0339   -2.9265    5.3173 H   0  0
   -0.4054   -1.5389    0.8505 H   0  0
   -0.0184    0.0014    0.0540 H   0  0
    2.4924   -3.0147   -0.1670 H   0  0
    1.4074   -3.2147    1.2262 H   0  0
    1.8027   -0.6276    1.6117 H   0  0
   -0.2269   -2.6179   -1.1605 H   0  0
    4.2579   -2.4911    1.2595 H   0  0
    2.2902    0.4508   -0.2915 H   0  0
  1  3  1  0
  1  7  2  0
  2  4  2  0
  2  8  1  0
  3  9  2  0
  4 10  1  0
  5  7  1  0
  5 11  2  0
  6  8  2  0
  6 12  1  0
  7 13  1  0
  8 14  1  0
  9 11  1  0
  9 15  1  0
 10 12  2  0
 10 16  1  0
 11 22  1  0
 12 23  1  0
 13 20  1  0
 13 26  2  0
 14 21  1  0
 14 27  2  0
 15 31  1  0
 16 32  1  0
 17 19  1  0
 17 20  1  0
 18 19  1  0
 18 21  1  0
 19 30  1  0
 22 24  1  0
 22 28  2  0
 23 25  1  0
 23 29  2  0
  1 33  1  0
  2 34  1  0
  3 35  1  0
  4 36  1  0
  5 37  1  0
  6 38  1  0
 15 39  1  0
 15 40  1  0
 16 41  1  0
 16 42  1  0
 17 43  1  0
 17 44  1  0
 18 45  1  0
 18 46  1  0
 19 47  1  0
 20 48  1  0
 21 49  1  0
 30 50  1  0
M  CHG  4  22   1  23   1  24  -1  25  -1
M  END
> <Name>
BR020151

$$$$
BR020152
  SciTegic05062102053D

 61 62  0  0  1  0            999 V2000
    2.2926   -5.0306    5.1402 C   0  0
    8.7264   -0.3037    1.1209 C   0  0
    1.7337   -6.2970    5.3120 C   0  0
    9.7859    0.1559    0.3387 C   0  0
    0.0823   -4.0550    5.1403 C   0  0
    8.2986   -2.0550   -0.4875 C   0  0
    1.4669   -3.9096    5.0544 C   0  0
    7.9827   -1.4092    0.7078 C   0  0
    0.3491   -6.4424    5.3979 C   0  0
   10.1018   -0.4900   -0.8566 C   0  0
   -0.4766   -5.3214    5.3121 C   0  0
    9.3581   -1.5954   -1.2697 C   0  0
    2.0620   -2.5607    4.8715 C   0  0
    6.8542   -1.8989    1.5407 C   0  0
    3.4347    0.1304    2.4768 C   0  0
    0.9874    0.9210   -0.4105 C   0  0
   -0.2177   -7.8133    5.5815 C   0  0
   11.2428    0.0281   -1.6715 C   0  0
    2.5369   -0.1121    1.2850 C   0  0
    1.8617    1.1711    0.8074 C   0  0
    4.0533   -1.1375    5.2782 C   0  0
    5.9405   -2.0684    3.8412 C   0  0
    4.8657   -0.9913    3.9908 C   0  0  1  0  0  0
    3.3522   -2.3911    5.3585 N   0  0
    6.9470   -1.6348    2.8973 N   0  0
   -1.8909   -5.4466    5.3965 N   0  3
    9.6623   -2.2687   -2.4852 N   0  3
   -2.5472   -5.6235    4.3431 O   0  5
    9.1047   -1.8910   -3.5426 O   0  5
    1.3971   -1.6796    4.3329 O   0  0
    5.9348   -2.5120    1.0046 O   0  0
    3.6305    1.2171    3.0033 O   0  0
   -2.4389   -5.3766    6.5218 O   0  0
   10.4791   -3.2194   -2.4628 O   0  0
    3.9853   -1.0584    2.8643 O   0  0
   -0.9272   -8.4047    4.0636 Cl  0  0
   10.6455    0.9126   -3.0920 Cl  0  0
    3.3730   -4.9285    5.0744 H   0  0
    8.4886    0.2070    2.0507 H   0  0
    2.3861   -7.1638    5.3794 H   0  0
   10.3601    1.0171    0.6706 H   0  0
   -0.5585   -3.1781    5.0724 H   0  0
    7.7157   -2.9168   -0.8067 H   0  0
    1.5841    0.4995   -1.2255 H   0  0
    0.1832    0.2155   -0.1781 H   0  0
    0.5356    1.8524   -0.7669 H   0  0
   -1.0006   -7.8218    6.3497 H   0  0
    0.5545   -8.5255    5.8970 H   0  0
   11.8847   -0.7886   -2.0236 H   0  0
   11.8742    0.7084   -1.0870 H   0  0
    3.1471   -0.5313    0.4770 H   0  0
    1.7751   -0.8447    1.5746 H   0  0
    1.2480    1.5927    1.6126 H   0  0
    2.6200    1.9238    0.5607 H   0  0
    4.7010   -1.0675    6.1577 H   0  0
    3.2932   -0.3523    5.3430 H   0  0
    5.5105   -3.0066    3.4754 H   0  0
    6.4264   -2.2609    4.8033 H   0  0
    5.3313    0.0019    3.9795 H   0  0
    3.8128   -3.1546    5.8492 H   0  0
    7.7683   -1.1772    3.2778 H   0  0
  1  3  1  0
  1  7  2  0
  2  4  2  0
  2  8  1  0
  3  9  2  0
  4 10  1  0
  5  7  1  0
  5 11  2  0
  6  8  2  0
  6 12  1  0
  7 13  1  0
  8 14  1  0
  9 11  1  0
  9 17  1  0
 10 12  2  0
 10 18  1  0
 11 26  1  0
 12 27  1  0
 13 24  1  0
 13 30  2  0
 14 25  1  0
 14 31  2  0
 15 19  1  0
 15 32  2  0
 15 35  1  0
 16 20  1  0
 17 36  1  0
 18 37  1  0
 19 20  1  0
 21 23  1  0
 21 24  1  0
 22 23  1  0
 22 25  1  0
 23 35  1  0
 26 28  1  0
 26 33  2  0
 27 29  1  0
 27 34  2  0
  1 38  1  0
  2 39  1  0
  3 40  1  0
  4 41  1  0
  5 42  1  0
  6 43  1  0
 16 44  1  0
 16 45  1  0
 16 46  1  0
 17 47  1  0
 17 48  1  0
 18 49  1  0
 18 50  1  0
 19 51  1  0
 19 52  1  0
 20 53  1  0
 20 54  1  0
 21 55  1  0
 21 56  1  0
 22 57  1  0
 22 58  1  0
 23 59  1  0
 24 60  1  0
 25 61  1  0
M  CHG  4  26   1  27   1  28  -1  29  -1
M  END
> <Name>
BR020152

$$$$
BR020153
  SciTegic05062102053D

 27 26  0  0  0  0            999 V2000
    2.8764   -1.8388    3.0304 C   0  0
   -0.0201   -2.6078    0.5870 C   0  0
    2.0589   -1.8036    1.7593 C   0  0
    0.8104   -2.6766    1.8582 C   0  0
    5.5657    0.3661    4.0176 C   0  0
    5.8422   -2.1625    3.9102 C   0  0
    4.8657   -0.9913    3.9908 C   0  0
    5.4936    3.5878    4.7299 N   0  5
    8.1925   -3.8541    2.3271 N   0  5
    4.6359    1.3720    4.5436 N   0  0
    6.6405   -2.0801    2.6829 N   0  0
    5.0880    2.5256    4.6388 N   0  3
    7.4485   -3.0074    2.5018 N   0  3
    2.5859   -2.4671    4.0391 O   0  0
    3.9853   -1.0584    2.8643 O   0  0
   -0.3151   -1.5738    0.3824 H   0  0
    0.5481   -2.9757   -0.2734 H   0  0
   -0.9306   -3.2086    0.6804 H   0  0
    1.7687   -0.7642    1.5683 H   0  0
    2.6913   -2.1552    0.9365 H   0  0
    1.0965   -3.7183    2.0472 H   0  0
    0.1970   -2.3578    2.7094 H   0  0
    5.8689    0.6774    3.0128 H   0  0
    6.4523    0.3374    4.6593 H   0  0
    6.5136   -2.1629    4.7749 H   0  0
    5.2943   -3.1108    3.8987 H   0  0
    4.2500   -1.1160    4.8896 H   0  0
  1  3  1  0
  1 14  2  0
  1 15  1  0
  2  4  1  0
  3  4  1  0
  5  7  1  0
  5 10  1  0
  6  7  1  0
  6 11  1  0
  7 15  1  0
  8 12  2  0
  9 13  2  0
 10 12  2  0
 11 13  2  0
  2 16  1  0
  2 17  1  0
  2 18  1  0
  3 19  1  0
  3 20  1  0
  4 21  1  0
  4 22  1  0
  5 23  1  0
  5 24  1  0
  6 25  1  0
  6 26  1  0
  7 27  1  0
M  CHG  4   8  -1   9  -1  12   1  13   1
M  END
> <Name>
BR020153

$$$$
BR020154
  SciTegic05062102053D

 24 24  0  0  0  0            999 V2000
    7.4728   -1.7242    0.4505 C   0  0
    7.6347   -0.0306   -1.1163 C   0  0
    4.6292   -0.5734   -0.2473 C   0  0
    8.8350   -1.1218    0.6648 C   0  0
    8.9421   -0.0012   -0.3717 C   0  0
    0.7739   -0.5458   -0.5479 C   0  0
    3.2543   -0.9227   -0.7704 C   0  0
    2.1528   -0.1618   -0.0365 C   0  0
    6.8777   -0.9933   -0.5280 N   0  0
    7.0261   -2.6788    1.0674 O   0  0
    7.3486    0.6965   -2.0549 O   0  0
    4.8583    0.2072    0.6667 O   0  0
    5.5631   -1.2700   -0.9625 O   0  0
    8.9109   -0.7297    1.6832 H   0  0
    9.6056   -1.8821    0.5081 H   0  0
    9.7682   -0.1806   -1.0659 H   0  0
    9.0735    0.9730    0.1081 H   0  0
    0.5996   -1.6208   -0.4368 H   0  0
    0.6795   -0.2944   -1.6089 H   0  0
   -0.0099   -0.0119   -0.0013 H   0  0
    3.1050   -2.0011   -0.6452 H   0  0
    3.2231   -0.6792   -1.8384 H   0  0
    2.2971    0.9181   -0.1610 H   0  0
    2.2097   -0.3666    1.0394 H   0  0
  1  4  1  0
  1  9  1  0
  1 10  2  0
  2  5  1  0
  2  9  1  0
  2 11  2  0
  3  7  1  0
  3 12  2  0
  3 13  1  0
  4  5  1  0
  6  8  1  0
  7  8  1  0
  9 13  1  0
  4 14  1  0
  4 15  1  0
  5 16  1  0
  5 17  1  0
  6 18  1  0
  6 19  1  0
  6 20  1  0
  7 21  1  0
  7 22  1  0
  8 23  1  0
  8 24  1  0
M  END
> <Name>
BR020154

$$$$
BR020155
  SciTegic05062102053D

 28 27  0  0  1  0            999 V2000
   -0.2997    2.0855    4.3536 C   0  0
   -2.4700   -0.1854    2.0820 C   0  0
   -0.6538    1.1260    3.2317 C   0  0
   -2.1442    0.8014    3.1911 C   0  0
    1.6449    3.2587    5.3485 C   0  0
    2.4275    4.8650    3.5404 C   0  0
    1.6555    4.7048    4.8479 C   0  0  1  0  0  0
    1.0582    2.3688    4.3748 N   0  0
    2.7643    6.2978    3.3331 N   0  3
   -1.1281    2.5450    5.1352 O   0  0
    0.3019    5.1234    4.6764 O   0  0
   -1.9065   -1.1155    2.2060 H   0  0
   -3.5372   -0.4286    2.0744 H   0  0
   -2.2120    0.2407    1.1075 H   0  0
   -0.3435    1.5792    2.2826 H   0  0
   -0.0737    0.2061    3.3719 H   0  0
   -2.7230    1.7204    3.0392 H   0  0
   -2.4622    0.3820    4.1532 H   0  0
    1.0831    3.1856    6.2854 H   0  0
    2.6698    2.9250    5.5432 H   0  0
    1.8326    4.5631    2.6737 H   0  0
    3.3820    4.3306    3.5501 H   0  0
    2.0964    5.3313    5.6329 H   0  0
    1.6605    1.9350    3.6813 H   0  0
    2.1874    6.8976    3.9308 H   0  0
    2.6045    6.5715    2.3586 H   0  0
    3.7480    6.4767    3.5570 H   0  0
   -0.1201    5.0497    5.5458 H   0  0
  1  3  1  0
  1  8  1  0
  1 10  2  0
  2  4  1  0
  3  4  1  0
  5  7  1  0
  5  8  1  0
  6  7  1  0
  6  9  1  0
  7 11  1  0
  2 12  1  0
  2 13  1  0
  2 14  1  0
  3 15  1  0
  3 16  1  0
  4 17  1  0
  4 18  1  0
  5 19  1  0
  5 20  1  0
  6 21  1  0
  6 22  1  0
  7 23  1  0
  8 24  1  0
  9 25  1  0
  9 26  1  0
  9 27  1  0
 11 28  1  0
M  CHG  1   9   1
M  END
> <Name>
BR020155

$$$$
BR020156
  SciTegic05062102053D

 28 27  0  0  1  0            999 V2000
    1.8140    1.7388    3.3969 C   0  0
    0.8846   -0.6923    0.5239 C   0  0
    0.9556    0.8588    2.5062 C   0  0
    1.7688    0.1563    1.4230 C   0  0
    1.6449    3.2587    5.3485 C   0  0
    2.6915    5.5646    5.5681 C   0  0
    1.6555    4.7048    4.8479 C   0  0  2  0  0  0
    1.0582    2.3688    4.3748 N   0  0
    2.3602    5.6359    7.0153 N   0  3
    3.0275    1.8634    3.2543 O   0  0
    0.3482    5.2466    5.0333 O   0  0
    0.1092   -0.0836    0.0484 H   0  0
    1.4734   -1.1749   -0.2626 H   0  0
    0.3912   -1.4756    1.1077 H   0  0
    0.4545    0.1164    3.1388 H   0  0
    0.1830    1.4868    2.0466 H   0  0
    2.5336   -0.4805    1.8835 H   0  0
    2.2990    0.8975    0.8131 H   0  0
    1.0831    3.1856    6.2854 H   0  0
    2.6698    2.9250    5.5432 H   0  0
    2.6922    6.5961    5.2043 H   0  0
    3.6987    5.1415    5.5112 H   0  0
    1.8544    4.6879    3.7694 H   0  0
    0.0574    2.1980    4.4069 H   0  0
    1.3904    5.3501    7.1814 H   0  0
    2.4754    6.5912    7.3680 H   0  0
    2.9715    5.0196    7.5596 H   0  0
   -0.2542    4.6933    4.5134 H   0  0
  1  3  1  0
  1  8  1  0
  1 10  2  0
  2  4  1  0
  3  4  1  0
  5  7  1  0
  5  8  1  0
  6  7  1  0
  6  9  1  0
  7 11  1  0
  2 12  1  0
  2 13  1  0
  2 14  1  0
  3 15  1  0
  3 16  1  0
  4 17  1  0
  4 18  1  0
  5 19  1  0
  5 20  1  0
  6 21  1  0
  6 22  1  0
  7 23  1  0
  8 24  1  0
  9 25  1  0
  9 26  1  0
  9 27  1  0
 11 28  1  0
M  CHG  1   9   1
M  END
> <Name>
BR020156

$$$$
BR020157
  SciTegic05062102053D

 38 37  0  0  0  0            999 V2000
    0.9435    2.8410    3.0073 C   0  0
    5.1267    1.7882    7.7677 C   0  0
   -0.5038    1.1412   -0.1619 C   0  0
    8.3844    1.8771    9.8671 C   0  0
    0.3095    1.7714    2.1363 C   0  0
    6.6103    1.7372    8.0858 C   0  0
    0.1625    2.2142    0.6836 C   0  0
    6.8927    1.8982    9.5766 C   0  0
    1.6449    3.2587    5.3485 C   0  0
    3.5570    1.6519    5.8532 C   0  0
    3.1579    3.0804    5.4824 C   0  0
    1.0689    2.4210    4.3235 N   0  0
    4.8920    1.6402    6.4100 N   0  0
    1.2968    3.9370    2.5803 O   0  0
    4.2582    1.9407    8.6226 O   0  0
    3.7861    3.4283    4.2486 O   0  0
   -1.4918    0.8866    0.2343 H   0  0
   -0.6244    1.4760   -1.1970 H   0  0
    0.1044    0.2313   -0.1680 H   0  0
    8.9023    2.6704    9.3190 H   0  0
    8.5779    2.0148   10.9356 H   0  0
    8.8160    0.9178    9.5648 H   0  0
    0.9326    0.8707    2.1919 H   0  0
   -0.6742    1.5274    2.5550 H   0  0
    7.0036    0.7767    7.7319 H   0  0
    7.1090    2.5344    7.5217 H   0  0
    1.1479    2.4468    0.2621 H   0  0
   -0.4299    3.1355    0.6312 H   0  0
    6.4032    1.0939   10.1388 H   0  0
    6.4672    2.8420    9.9383 H   0  0
    1.1397    3.0194    6.2895 H   0  0
    1.4032    4.2914    5.0772 H   0  0
    3.5476    0.9988    4.9744 H   0  0
    2.8666    1.2422    6.5977 H   0  0
    3.5285    3.7788    6.2429 H   0  0
    0.7443    1.4918    4.5747 H   0  0
    5.6827    1.5196    5.7858 H   0  0
    3.5588    4.3546    4.0772 H   0  0
  1  5  1  0
  1 12  1  0
  1 14  2  0
  2  6  1  0
  2 13  1  0
  2 15  2  0
  3  7  1  0
  4  8  1  0
  5  7  1  0
  6  8  1  0
  9 11  1  0
  9 12  1  0
 10 11  1  0
 10 13  1  0
 11 16  1  0
  3 17  1  0
  3 18  1  0
  3 19  1  0
  4 20  1  0
  4 21  1  0
  4 22  1  0
  5 23  1  0
  5 24  1  0
  6 25  1  0
  6 26  1  0
  7 27  1  0
  7 28  1  0
  8 29  1  0
  8 30  1  0
  9 31  1  0
  9 32  1  0
 10 33  1  0
 10 34  1  0
 11 35  1  0
 12 36  1  0
 13 37  1  0
 16 38  1  0
M  END
> <Name>
BR020157

$$$$
BR020158
  SciTegic05062102053D

 55 55  0  0  0  0            999 V2000
    5.1554    6.2539    2.4139 C   0  0
    5.7592    6.4694    1.1752 C   0  0
    4.9437    3.9023    1.9016 C   0  0
    4.7477    4.9703    2.7772 C   0  0
    5.9552    5.4015    0.2996 C   0  0
    5.5475    4.1179    0.6628 C   0  0
    4.1050    4.7405    4.0958 C   0  0
    0.9435    2.8410    3.0073 C   0  0
    6.0196    1.4802    5.6203 C   0  0
   -0.5038    1.1412   -0.1619 C   0  0
    9.8018    1.3296    6.4569 C   0  0
    6.6047    5.6666   -1.0204 C   0  0
    0.3095    1.7714    2.1363 C   0  0
    7.2901    1.5070    6.4509 C   0  0
    0.1625    2.2142    0.6836 C   0  0
    8.5455    1.3325    5.6014 C   0  0
    1.6449    3.2587    5.3485 C   0  0
    3.5570    1.6519    5.8532 C   0  0
    3.1579    3.0804    5.4824 C   0  0
    1.0689    2.4210    4.3235 N   0  0
    4.8920    1.6402    6.4100 N   0  0
    5.7369    3.0146   -0.2146 N   0  3
    4.8327    2.7314   -1.0355 O   0  5
    3.9043    5.6308    4.9073 O   0  0
    1.2968    3.9370    2.5803 O   0  0
    6.0136    1.3353    4.4008 O   0  0
    6.8026    2.3585   -0.1412 O   0  0
    3.7861    3.4283    4.2486 O   0  0
    5.4004    5.6381   -2.3265 Cl  0  0
    5.0072    7.0933    3.0888 H   0  0
    6.0747    7.4733    0.9025 H   0  0
    4.6238    2.9025    2.1884 H   0  0
   -1.4918    0.8866    0.2343 H   0  0
   -0.6244    1.4760   -1.1970 H   0  0
    0.1044    0.2313   -0.1680 H   0  0
    9.7650    0.5321    7.2056 H   0  0
   10.6950    1.1824    5.8416 H   0  0
    9.9050    2.2842    6.9822 H   0  0
    7.3705    4.9146   -1.2464 H   0  0
    7.0980    6.6462   -1.0328 H   0  0
    0.9326    0.8707    2.1919 H   0  0
   -0.6742    1.5274    2.5550 H   0  0
    7.3298    2.4637    6.9853 H   0  0
    7.2284    0.7060    7.1972 H   0  0
    1.1479    2.4468    0.2621 H   0  0
   -0.4299    3.1355    0.6312 H   0  0
    8.6126    2.1405    4.8630 H   0  0
    8.4891    0.3930    5.0387 H   0  0
    1.1397    3.0194    6.2895 H   0  0
    1.4032    4.2914    5.0772 H   0  0
    3.5476    0.9988    4.9744 H   0  0
    2.8666    1.2422    6.5977 H   0  0
    3.5285    3.7788    6.2429 H   0  0
    0.7443    1.4918    4.5747 H   0  0
    5.0066    1.7528    7.4117 H   0  0
  1  2  1  0
  1  4  2  0
  2  5  2  0
  3  4  1  0
  3  6  2  0
  4  7  1  0
  5  6  1  0
  5 12  1  0
  6 22  1  0
  7 24  2  0
  7 28  1  0
  8 13  1  0
  8 20  1  0
  8 25  2  0
  9 14  1  0
  9 21  1  0
  9 26  2  0
 10 15  1  0
 11 16  1  0
 12 29  1  0
 13 15  1  0
 14 16  1  0
 17 19  1  0
 17 20  1  0
 18 19  1  0
 18 21  1  0
 19 28  1  0
 22 23  1  0
 22 27  2  0
  1 30  1  0
  2 31  1  0
  3 32  1  0
 10 33  1  0
 10 34  1  0
 10 35  1  0
 11 36  1  0
 11 37  1  0
 11 38  1  0
 12 39  1  0
 12 40  1  0
 13 41  1  0
 13 42  1  0
 14 43  1  0
 14 44  1  0
 15 45  1  0
 15 46  1  0
 16 47  1  0
 16 48  1  0
 17 49  1  0
 17 50  1  0
 18 51  1  0
 18 52  1  0
 19 53  1  0
 20 54  1  0
 21 55  1  0
M  CHG  2  22   1  23  -1
M  END
> <Name>
BR020158

$$$$
BR020159
  SciTegic05062102053D

 18 18  0  0  0  0            999 V2000
    1.8851   -1.0363   -0.1124 C   0  0
    2.8783   -1.6520    2.0022 C   0  0
    0.8066   -0.4630    0.5610 C   0  0
    1.7997   -1.0786    2.6757 C   0  0
    2.9210   -1.6309    0.6081 C   0  0
    0.7638   -0.4841    1.9551 C   0  0
    4.0584   -2.2362   -0.1030 C   0  0
   -0.3884    0.1316    2.6741 C   0  0
    5.0023   -2.7786    0.5853 O   0  5
    4.0730   -2.2035   -1.3905 O   0  0
   -0.2962    1.9478    2.7121 S   0  0
    1.9086   -1.0147   -1.1989 H   0  0
    3.6804   -2.1131    2.5728 H   0  0
    0.0042   -0.0024   -0.0091 H   0  0
    1.7748   -1.0998    3.7620 H   0  0
   -1.3415   -0.1562    2.2062 H   0  0
   -0.4390   -0.2316    3.7112 H   0  0
   -1.4318    2.1296    3.3990 H   0  0
  1  3  2  0
  1  5  1  0
  2  4  1  0
  2  5  2  0
  3  6  1  0
  4  6  2  0
  5  7  1  0
  6  8  1  0
  7  9  1  0
  7 10  2  0
  8 11  1  0
  1 12  1  0
  2 13  1  0
  3 14  1  0
  4 15  1  0
  8 16  1  0
  8 17  1  0
 11 18  1  0
M  CHG  1   9  -1
M  END
> <Name>
BR020159

$$$$
BR020160
  SciTegic05062102053D

 17 17  0  0  0  0            999 V2000
    1.8851   -1.0363   -0.1124 C   0  0
    2.8783   -1.6520    2.0022 C   0  0
    0.8066   -0.4630    0.5610 C   0  0
    1.7997   -1.0786    2.6757 C   0  0
    2.9210   -1.6309    0.6081 C   0  0
    0.7638   -0.4841    1.9551 C   0  0
    4.0584   -2.2362   -0.1030 C   0  0
   -0.3884    0.1316    2.6741 C   0  0
    5.0023   -2.7786    0.5853 O   0  5
    4.0730   -2.2035   -1.3905 O   0  0
    0.0796    1.6885    3.3943 Cl  0  0
    1.9086   -1.0147   -1.1989 H   0  0
    3.6804   -2.1131    2.5728 H   0  0
    0.0042   -0.0024   -0.0091 H   0  0
    1.7748   -1.0998    3.7620 H   0  0
   -0.7535   -0.5183    3.4804 H   0  0
   -1.2349    0.3121    1.9981 H   0  0
  1  3  1  0
  1  5  2  0
  2  4  2  0
  2  5  1  0
  3  6  2  0
  4  6  1  0
  5  7  1  0
  6  8  1  0
  7  9  1  0
  7 10  2  0
  8 11  1  0
  1 12  1  0
  2 13  1  0
  3 14  1  0
  4 15  1  0
  8 16  1  0
  8 17  1  0
M  CHG  1   9  -1
M  END
> <Name>
BR020160

$$$$
BR020161
  SciTegic05062102053D

 31 31  0  0  0  0            999 V2000
    3.9822   -0.9176   -4.7661 C   0  0
    4.2254   -1.4764   -6.0207 C   0  0
    1.6403   -1.4746   -4.9719 C   0  0
    2.6896   -0.9167   -4.2417 C   0  0
    3.1761   -2.0344   -6.7510 C   0  0
    1.8835   -2.0335   -6.2266 C   0  0
    2.4303   -0.3215   -2.9054 C   0  0
    5.1545    1.9788   -1.0894 C   0  0
    3.4706   -2.6247   -8.0924 C   0  0
    3.7436    1.6779   -0.6040 C   0  0
    3.3982    0.1955   -0.6801 C   0  0
    3.4995   -0.3221   -2.0165 N   0  0
    0.7987   -2.5963   -6.9542 N   0  3
    0.1470   -1.8624   -7.7342 O   0  5
    1.3101    0.1118   -2.6487 O   0  0
    0.5268   -3.8095   -6.7940 O   0  0
    3.4552   -4.0424   -7.9945 O   0  0
    4.8072   -0.4853   -4.2053 H   0  0
    5.2366   -1.4735   -6.4195 H   0  0
    0.6332   -1.4715   -4.5596 H   0  0
    5.8974    1.4361   -0.4963 H   0  0
    5.2666    1.6725   -2.1344 H   0  0
    5.3782    3.0483   -1.0276 H   0  0
    2.7255   -2.3138   -8.8356 H   0  0
    4.4552   -2.3042   -8.4556 H   0  0
    3.0334    2.2390   -1.2223 H   0  0
    3.6325    2.0379    0.4257 H   0  0
    4.0905   -0.3826   -0.0599 H   0  0
    2.3811    0.0056   -0.3232 H   0  0
    4.3796   -0.7584   -2.2862 H   0  0
    3.6496   -4.3866   -8.8812 H   0  0
  1  2  2  0
  1  4  1  0
  2  5  1  0
  3  4  2  0
  3  6  1  0
  4  7  1  0
  5  6  2  0
  5  9  1  0
  6 13  1  0
  7 12  1  0
  7 15  2  0
  8 10  1  0
  9 17  1  0
 10 11  1  0
 11 12  1  0
 13 14  1  0
 13 16  2  0
  1 18  1  0
  2 19  1  0
  3 20  1  0
  8 21  1  0
  8 22  1  0
  8 23  1  0
  9 24  1  0
  9 25  1  0
 10 26  1  0
 10 27  1  0
 11 28  1  0
 11 29  1  0
 12 30  1  0
 17 31  1  0
M  CHG  2  13   1  14  -1
M  END
> <Name>
BR020161

$$$$
BR020162
  SciTegic05062102053D

 30 30  0  0  0  0            999 V2000
    3.9822   -0.9176   -4.7661 C   0  0
    4.2254   -1.4764   -6.0207 C   0  0
    1.6403   -1.4746   -4.9719 C   0  0
    2.6896   -0.9167   -4.2417 C   0  0
    3.1761   -2.0344   -6.7510 C   0  0
    1.8835   -2.0335   -6.2266 C   0  0
    2.4303   -0.3215   -2.9054 C   0  0
    5.1545    1.9788   -1.0894 C   0  0
    3.4706   -2.6247   -8.0924 C   0  0
    3.7436    1.6779   -0.6040 C   0  0
    3.3982    0.1955   -0.6801 C   0  0
    3.4995   -0.3221   -2.0165 N   0  0
    0.7987   -2.5963   -6.9542 N   0  3
    0.1470   -1.8624   -7.7342 O   0  5
    1.3101    0.1118   -2.6487 O   0  0
    0.5268   -3.8095   -6.7940 O   0  0
    4.3948   -4.3200   -7.8651 Br  0  0
    4.8072   -0.4853   -4.2053 H   0  0
    5.2366   -1.4735   -6.4195 H   0  0
    0.6332   -1.4715   -4.5596 H   0  0
    5.8974    1.4361   -0.4963 H   0  0
    5.2666    1.6725   -2.1344 H   0  0
    5.3782    3.0483   -1.0276 H   0  0
    4.1193   -1.9793   -8.6931 H   0  0
    2.5583   -2.8263   -8.6630 H   0  0
    3.0334    2.2390   -1.2223 H   0  0
    3.6325    2.0379    0.4257 H   0  0
    4.0905   -0.3826   -0.0599 H   0  0
    2.3811    0.0056   -0.3232 H   0  0
    4.3796   -0.7584   -2.2862 H   0  0
  1  2  2  0
  1  4  1  0
  2  5  1  0
  3  4  2  0
  3  6  1  0
  4  7  1  0
  5  6  2  0
  5  9  1  0
  6 13  1  0
  7 12  1  0
  7 15  2  0
  8 10  1  0
  9 17  1  0
 10 11  1  0
 11 12  1  0
 13 14  1  0
 13 16  2  0
  1 18  1  0
  2 19  1  0
  3 20  1  0
  8 21  1  0
  8 22  1  0
  8 23  1  0
  9 24  1  0
  9 25  1  0
 10 26  1  0
 10 27  1  0
 11 28  1  0
 11 29  1  0
 12 30  1  0
M  CHG  2  13   1  14  -1
M  END
> <Name>
BR020162

$$$$
BR020163
  SciTegic05062102053D

 31 31  0  0  0  0            999 V2000
    8.4413   -0.2501    3.0179 C   0  0
    7.1244   -0.0913    3.4493 C   0  0
    8.0625   -2.6191    2.7330 C   0  0
    8.9103   -1.5140    2.6597 C   0  0
    6.2765   -1.1965    3.5226 C   0  0
    6.7455   -2.4604    3.1645 C   0  0
   10.3001   -1.6808    2.2046 C   0  0
    2.6589   -0.8875    3.1437 C   0  0
   -0.4071   -0.9006    0.7879 C   0  0
    4.8657   -0.9913    3.9908 C   0  0
    1.8715   -0.9870    1.8571 C   0  0
    0.3710   -0.8314    2.0917 C   0  0
    5.8985   -3.6011    3.2319 N   0  3
   10.7088   -2.8581    1.8800 O   0  5
    5.8561   -4.2619    4.2964 O   0  5
   11.0619   -0.6440    2.1464 O   0  0
    2.1792   -0.6873    4.2510 O   0  0
    5.2195   -3.9114    2.2249 O   0  0
    3.9853   -1.0584    2.8643 O   0  0
    9.0937    0.6176    2.9644 H   0  0
    6.7687    0.8977    3.7260 H   0  0
    8.4324   -3.6035    2.4529 H   0  0
   -0.0643   -0.1214    0.0999 H   0  0
   -0.2687   -1.8705    0.2993 H   0  0
   -1.4779   -0.7529    0.9620 H   0  0
    4.5777   -1.7604    4.7155 H   0  0
    4.7560   -0.0149    4.4748 H   0  0
    2.2230   -0.2006    1.1796 H   0  0
    2.0756   -1.9647    1.4064 H   0  0
    0.0148   -1.6181    2.7677 H   0  0
    0.1665    0.1261    2.5853 H   0  0
  1  2  2  0
  1  4  1  0
  2  5  1  0
  3  4  2  0
  3  6  1  0
  4  7  1  0
  5  6  2  0
  5 10  1  0
  6 13  1  0
  7 14  1  0
  7 16  2  0
  8 11  1  0
  8 17  2  0
  8 19  1  0
  9 12  1  0
 10 19  1  0
 11 12  1  0
 13 15  1  0
 13 18  2  0
  1 20  1  0
  2 21  1  0
  3 22  1  0
  9 23  1  0
  9 24  1  0
  9 25  1  0
 10 26  1  0
 10 27  1  0
 11 28  1  0
 11 29  1  0
 12 30  1  0
 12 31  1  0
M  CHG  3  13   1  14  -1  15  -1
M  END
> <Name>
BR020163

$$$$
BR020164
  SciTegic05062102053D

 24 24  0  0  0  0            999 V2000
    1.8851   -1.0363   -0.1124 C   0  0
    0.8066   -0.4630    0.5610 C   0  0
    2.8783   -1.6520    2.0022 C   0  0
    2.9210   -1.6309    0.6081 C   0  0
    0.7638   -0.4841    1.9551 C   0  0
    1.7997   -1.0786    2.6757 C   0  0
    4.0457   -2.2287   -0.0938 C   0  0
    4.6979   -3.3287   -2.1080 C   0  0
   -0.4059    0.1394    2.6460 C   0  0
    1.7770   -1.1109    4.0974 N   0  3
    2.2972   -0.1639    4.7331 O   0  5
    5.1971   -2.2950    0.3567 O   0  0
    1.2371   -2.0853    4.6725 O   0  0
   -1.2638   -0.8841    3.1319 O   0  0
    3.6746   -2.7128   -1.3186 O   0  0
    1.9086   -1.0143   -1.1992 H   0  0
    0.0037   -0.0038   -0.0100 H   0  0
    3.6886   -2.1163    2.5608 H   0  0
    4.2728   -3.6697   -3.0551 H   0  0
    5.1218   -4.1746   -1.5610 H   0  0
    5.4832   -2.5955   -2.3067 H   0  0
   -0.0834    0.7608    3.4910 H   0  0
   -0.9721    0.7813    1.9592 H   0  0
   -2.0074   -0.4411    3.5717 H   0  0
  1  2  2  0
  1  4  1  0
  2  5  1  0
  3  4  2  0
  3  6  1  0
  4  7  1  0
  5  6  2  0
  5  9  1  0
  6 10  1  0
  7 12  2  0
  7 15  1  0
  8 15  1  0
  9 14  1  0
 10 11  1  0
 10 13  2  0
  1 16  1  0
  2 17  1  0
  3 18  1  0
  8 19  1  0
  8 20  1  0
  8 21  1  0
  9 22  1  0
  9 23  1  0
 14 24  1  0
M  CHG  2  10   1  11  -1
M  END
> <Name>
BR020164

$$$$
BR020165
  SciTegic05062102053D

 35 35  0  0  0  0            999 V2000
    7.8642   -1.2155    1.7017 C   0  0
    6.5622   -1.0320    2.1673 C   0  0
    8.5948   -1.7280    3.9468 C   0  0
    8.8805   -1.5635    2.5915 C   0  0
    6.2765   -1.1965    3.5226 C   0  0
    7.2928   -1.5445    4.4124 C   0  0
   10.2381   -1.7549    2.1063 C   0  0
    2.9772   -2.2321    4.6922 C   0  0
    0.5887   -5.1215    5.6395 C   0  0
   11.5353   -2.4332    0.2224 C   0  0
    4.8657   -0.9913    3.9908 C   0  0
    2.5022   -3.6483    4.9243 C   0  0
    1.0662   -3.6922    5.4409 C   0  0
    7.0242   -1.7167    5.7985 N   0  3
    7.1217   -0.7271    6.5619 O   0  5
   11.2576   -1.5403    2.7754 O   0  0
    2.3064   -1.2247    4.8699 O   0  0
    6.6975   -2.8529    6.2154 O   0  0
   10.2519   -2.2046    0.8142 O   0  0
    4.2712   -2.2661    4.2553 O   0  0
    8.0760   -1.0847    0.6434 H   0  0
    5.7772   -0.7626    1.4653 H   0  0
    9.3906   -1.9990    4.6380 H   0  0
    0.6535   -5.6771    4.6987 H   0  0
    1.2018   -5.6403    6.3835 H   0  0
   -0.4528   -5.1437    5.9761 H   0  0
   11.4066   -2.7876   -0.8032 H   0  0
   12.0815   -3.1755    0.8099 H   0  0
   12.0949   -1.4948    0.2136 H   0  0
    4.8401   -0.3886    4.9050 H   0  0
    4.2760   -0.4711    3.2283 H   0  0
    2.5700   -4.1915    3.9749 H   0  0
    3.1717   -4.1180    5.6536 H   0  0
    0.9944   -3.1515    6.3923 H   0  0
    0.3990   -3.1819    4.7361 H   0  0
  1  2  2  0
  1  4  1  0
  2  5  1  0
  3  4  2  0
  3  6  1  0
  4  7  1  0
  5  6  2  0
  5 11  1  0
  6 14  1  0
  7 16  2  0
  7 19  1  0
  8 12  1  0
  8 17  2  0
  8 20  1  0
  9 13  1  0
 10 19  1  0
 11 20  1  0
 12 13  1  0
 14 15  1  0
 14 18  2  0
  1 21  1  0
  2 22  1  0
  3 23  1  0
  9 24  1  0
  9 25  1  0
  9 26  1  0
 10 27  1  0
 10 28  1  0
 10 29  1  0
 11 30  1  0
 11 31  1  0
 12 32  1  0
 12 33  1  0
 13 34  1  0
 13 35  1  0
M  CHG  2  14   1  15  -1
M  END
> <Name>
BR020165

$$$$
BR020166
  SciTegic05062102053D

 27 27  0  0  0  0            999 V2000
    1.8851   -1.0363   -0.1124 C   0  0
    0.8066   -0.4630    0.5610 C   0  0
    2.8783   -1.6520    2.0022 C   0  0
    2.9210   -1.6309    0.6081 C   0  0
    0.7638   -0.4841    1.9551 C   0  0
    1.7997   -1.0786    2.6757 C   0  0
    4.0457   -2.2287   -0.0938 C   0  0
    4.6979   -3.3287   -2.1080 C   0  0
   -2.3957   -0.3429    3.7995 C   0  0
   -0.4059    0.1394    2.6460 C   0  0
    1.7770   -1.1109    4.0974 N   0  3
    2.2972   -0.1639    4.7331 O   0  5
    5.1971   -2.2950    0.3567 O   0  0
    1.2371   -2.0853    4.6725 O   0  0
    3.6746   -2.7128   -1.3186 O   0  0
   -1.2638   -0.8841    3.1319 O   0  0
    1.9086   -1.0143   -1.1992 H   0  0
    0.0037   -0.0038   -0.0100 H   0  0
    3.6886   -2.1163    2.5608 H   0  0
    4.2728   -3.6697   -3.0551 H   0  0
    5.1218   -4.1746   -1.5610 H   0  0
    5.4832   -2.5955   -2.3067 H   0  0
   -3.0311   -1.1562    4.1587 H   0  0
   -2.9559    0.2945    3.1108 H   0  0
   -2.0556    0.2532    4.6496 H   0  0
   -0.0834    0.7608    3.4910 H   0  0
   -0.9721    0.7813    1.9592 H   0  0
  1  2  2  0
  1  4  1  0
  2  5  1  0
  3  4  2  0
  3  6  1  0
  4  7  1  0
  5  6  2  0
  5 10  1  0
  6 11  1  0
  7 13  2  0
  7 15  1  0
  8 15  1  0
  9 16  1  0
 10 16  1  0
 11 12  1  0
 11 14  2  0
  1 17  1  0
  2 18  1  0
  3 19  1  0
  8 20  1  0
  8 21  1  0
  8 22  1  0
  9 23  1  0
  9 24  1  0
  9 25  1  0
 10 26  1  0
 10 27  1  0
M  CHG  2  11   1  12  -1
M  END
> <Name>
BR020166

$$$$
BR020167
  SciTegic05062102053D

 23 23  0  0  0  0            999 V2000
    1.8851   -1.0363   -0.1124 C   0  0
    0.8066   -0.4630    0.5610 C   0  0
    2.8783   -1.6520    2.0022 C   0  0
    2.9210   -1.6309    0.6081 C   0  0
    0.7638   -0.4841    1.9551 C   0  0
    1.7997   -1.0786    2.6757 C   0  0
    4.0457   -2.2287   -0.0938 C   0  0
   -0.4059    0.1394    2.6460 C   0  0
    4.6979   -3.3287   -2.1080 C   0  0
    1.7770   -1.1109    4.0974 N   0  3
    2.2972   -0.1639    4.7331 O   0  5
    5.1971   -2.2950    0.3567 O   0  0
    1.2371   -2.0853    4.6725 O   0  0
    3.6746   -2.7128   -1.3186 O   0  0
    1.9086   -1.0143   -1.1992 H   0  0
    0.0037   -0.0038   -0.0100 H   0  0
    3.6886   -2.1163    2.5608 H   0  0
   -1.1988   -0.6025    2.7921 H   0  0
   -0.1181    0.5424    3.6243 H   0  0
   -0.8104    0.9748    2.0618 H   0  0
    4.2728   -3.6697   -3.0551 H   0  0
    5.1218   -4.1746   -1.5610 H   0  0
    5.4832   -2.5955   -2.3067 H   0  0
  1  2  2  0
  1  4  1  0
  2  5  1  0
  3  4  2  0
  3  6  1  0
  4  7  1  0
  5  6  2  0
  5  8  1  0
  6 10  1  0
  7 12  2  0
  7 14  1  0
  9 14  1  0
 10 11  1  0
 10 13  2  0
  1 15  1  0
  2 16  1  0
  3 17  1  0
  8 18  1  0
  8 19  1  0
  8 20  1  0
  9 21  1  0
  9 22  1  0
  9 23  1  0
M  CHG  2  10   1  11  -1
M  END
> <Name>
BR020167

$$$$
BR020168
  SciTegic05062102053D

 20 21  0  0  0  0            999 V2000
    0.1298    2.0977   -0.4527 C   0  0
   -4.0902    4.2376   -1.4936 C   0  0
   -0.5812    3.2417   -0.8037 C   0  0
   -2.7151    4.3237   -1.3301 C   0  0
   -0.5469    0.8976   -0.2738 C   0  0
   -4.6804    3.0058   -1.2959 C   0  0
   -1.9747    3.1875   -0.9770 C   0  0
   -1.9323    0.8440   -0.4461 C   0  0
   -2.6683    1.9725   -0.7968 C   0  0
   -2.6159   -0.4727   -0.2425 C   0  0
   -4.0027    1.8858   -0.9548 N   0  0
    1.2065    2.1435   -0.3201 H   0  0
   -4.6777    5.1057   -1.7679 H   0  0
   -0.0416    4.1761   -0.9412 H   0  0
   -2.2234    5.2821   -1.4815 H   0  0
    0.0099    0.0050   -0.0005 H   0  0
   -5.7518    2.8778   -1.4100 H   0  0
   -2.9199   -0.5805    0.8037 H   0  0
   -3.5041   -0.5561   -0.8785 H   0  0
   -1.9522   -1.3040   -0.5047 H   0  0
  1  3  1  0
  1  5  2  0
  2  4  2  0
  2  6  1  0
  3  7  2  0
  4  7  1  0
  5  8  1  0
  6 11  2  0
  7  9  1  0
  8  9  2  0
  8 10  1  0
  9 11  1  0
  1 12  1  0
  2 13  1  0
  3 14  1  0
  4 15  1  0
  5 16  1  0
  6 17  1  0
 10 18  1  0
 10 19  1  0
 10 20  1  0
M  END
> <Name>
BR020168

$$$$
BR020169
  SciTegic05062102053D

 17 18  0  0  0  0            999 V2000
    0.1298    2.0977   -0.4527 C   0  0
   -0.5469    0.8976   -0.2738 C   0  0
   -4.0902    4.2376   -1.4936 C   0  0
   -0.5812    3.2417   -0.8037 C   0  0
   -2.7151    4.3237   -1.3301 C   0  0
   -1.9323    0.8440   -0.4461 C   0  0
   -4.6804    3.0058   -1.2959 C   0  0
   -1.9747    3.1875   -0.9770 C   0  0
   -2.6683    1.9725   -0.7968 C   0  0
   -4.0027    1.8858   -0.9548 N   0  0
    1.2068    2.1425   -0.3219 H   0  0
    0.0001    0.0000   -0.0007 H   0  0
   -4.6779    5.1058   -1.7678 H   0  0
   -0.0422    4.1763   -0.9411 H   0  0
   -2.2235    5.2822   -1.4809 H   0  0
   -2.4389   -0.1083   -0.2998 H   0  0
   -5.7519    2.8778   -1.4106 H   0  0
  1  2  2  0
  1  4  1  0
  2  6  1  0
  3  5  2  0
  3  7  1  0
  4  8  2  0
  5  8  1  0
  6  9  2  0
  7 10  2  0
  8  9  1  0
  9 10  1  0
  1 11  1  0
  2 12  1  0
  3 13  1  0
  4 14  1  0
  5 15  1  0
  6 16  1  0
  7 17  1  0
M  END
> <Name>
BR020169

$$$$
BR020170
  SciTegic05062102053D

 20 21  0  0  0  0            999 V2000
    0.1298    2.0977   -0.4527 C   0  0
   -4.0902    4.2376   -1.4936 C   0  0
   -0.5812    3.2417   -0.8037 C   0  0
   -2.7151    4.3237   -1.3301 C   0  0
   -0.5469    0.8976   -0.2738 C   0  0
   -4.6804    3.0058   -1.2959 C   0  0
   -1.9747    3.1875   -0.9770 C   0  0
   -1.9323    0.8440   -0.4461 C   0  0
   -2.6683    1.9725   -0.7968 C   0  0
   -2.6159   -0.4727   -0.2425 C   0  0
   -4.0027    1.8858   -0.9548 N   0  0
   -3.1317   -1.2050   -1.9671 Br  0  0
    1.2065    2.1435   -0.3201 H   0  0
   -4.6777    5.1057   -1.7679 H   0  0
   -0.0416    4.1761   -0.9412 H   0  0
   -2.2234    5.2821   -1.4815 H   0  0
    0.0099    0.0050   -0.0005 H   0  0
   -5.7518    2.8778   -1.4100 H   0  0
   -3.5264   -0.3730    0.3551 H   0  0
   -1.9607   -1.2039    0.2395 H   0  0
  1  3  1  0
  1  5  2  0
  2  4  2  0
  2  6  1  0
  3  7  2  0
  4  7  1  0
  5  8  1  0
  6 11  2  0
  7  9  1  0
  8  9  2  0
  8 10  1  0
  9 11  1  0
 10 12  1  0
  1 13  1  0
  2 14  1  0
  3 15  1  0
  4 16  1  0
  5 17  1  0
  6 18  1  0
 10 19  1  0
 10 20  1  0
M  END
> <Name>
BR020170

$$$$
BR020171
  SciTegic05062102053D

 22 23  0  0  0  0            999 V2000
   -4.0902    4.2376   -1.4936 C   0  0
   -2.7151    4.3237   -1.3301 C   0  0
   -0.5469    0.8976   -0.2738 C   0  0
    0.1298    2.0977   -0.4527 C   0  0
   -4.6804    3.0058   -1.2959 C   0  0
   -1.9747    3.1875   -0.9770 C   0  0
   -1.9323    0.8440   -0.4461 C   0  0
   -2.6683    1.9725   -0.7968 C   0  0
   -0.5812    3.2417   -0.8037 C   0  0
   -2.6160   -0.4724   -0.2421 C   0  0
   -4.0027    1.8858   -0.9548 N   0  0
    0.1585    4.4483   -0.9759 N   0  3
    0.6119    4.7200   -2.1108 O   0  5
    0.3296    5.1960    0.0136 O   0  0
   -4.6784    5.1057   -1.7667 H   0  0
   -2.2433    5.2910   -1.4841 H   0  0
    0.0099    0.0052    0.0001 H   0  0
    1.2078    2.1264   -0.3158 H   0  0
   -5.7519    2.8779   -1.4096 H   0  0
   -2.9201   -0.5800    0.8041 H   0  0
   -3.5042   -0.5561   -0.8780 H   0  0
   -1.9524   -1.3040   -0.5040 H   0  0
  1  2  2  0
  1  5  1  0
  2  6  1  0
  3  4  2  0
  3  7  1  0
  4  9  1  0
  5 11  2  0
  6  8  1  0
  6  9  2  0
  7  8  2  0
  7 10  1  0
  8 11  1  0
  9 12  1  0
 12 13  1  0
 12 14  2  0
  1 15  1  0
  2 16  1  0
  3 17  1  0
  4 18  1  0
  5 19  1  0
 10 20  1  0
 10 21  1  0
 10 22  1  0
M  CHG  2  12   1  13  -1
M  END
> <Name>
BR020171

$$$$
BR020172
  SciTegic05062102053D

 22 23  0  0  0  0            999 V2000
   -4.0902    4.2376   -1.4936 C   0  0
   -2.7151    4.3237   -1.3301 C   0  0
   -0.5469    0.8976   -0.2738 C   0  0
    0.1298    2.0977   -0.4527 C   0  0
   -4.6804    3.0058   -1.2959 C   0  0
   -1.9747    3.1875   -0.9770 C   0  0
   -1.9323    0.8440   -0.4461 C   0  0
   -2.6683    1.9725   -0.7968 C   0  0
   -0.5812    3.2417   -0.8037 C   0  0
   -2.6160   -0.4724   -0.2421 C   0  0
   -4.0027    1.8858   -0.9548 N   0  0
    0.1585    4.4483   -0.9759 N   0  3
    0.6119    4.7200   -2.1108 O   0  5
    0.3296    5.1960    0.0136 O   0  0
   -3.1319   -1.2054   -1.9664 Br  0  0
   -4.6784    5.1057   -1.7667 H   0  0
   -2.2433    5.2910   -1.4841 H   0  0
    0.0099    0.0052    0.0001 H   0  0
    1.2078    2.1264   -0.3158 H   0  0
   -5.7519    2.8779   -1.4096 H   0  0
   -3.5266   -0.3726    0.3554 H   0  0
   -1.9609   -1.2037    0.2402 H   0  0
  1  2  2  0
  1  5  1  0
  2  6  1  0
  3  4  2  0
  3  7  1  0
  4  9  1  0
  5 11  2  0
  6  8  1  0
  6  9  2  0
  7  8  2  0
  7 10  1  0
  8 11  1  0
  9 12  1  0
 10 15  1  0
 12 13  1  0
 12 14  2  0
  1 16  1  0
  2 17  1  0
  3 18  1  0
  4 19  1  0
  5 20  1  0
 10 21  1  0
 10 22  1  0
M  CHG  2  12   1  13  -1
M  END
> <Name>
BR020172

$$$$
BR020173
  SciTegic05062102053D

 23 24  0  0  0  0            999 V2000
   -4.0902    4.2376   -1.4936 C   0  0
   -2.7151    4.3237   -1.3301 C   0  0
   -0.5469    0.8976   -0.2738 C   0  0
    0.1298    2.0977   -0.4527 C   0  0
   -4.6804    3.0058   -1.2959 C   0  0
   -1.9747    3.1875   -0.9770 C   0  0
   -1.9323    0.8440   -0.4461 C   0  0
   -2.6683    1.9725   -0.7968 C   0  0
   -0.5812    3.2417   -0.8037 C   0  0
   -2.6160   -0.4724   -0.2421 C   0  0
   -4.0027    1.8858   -0.9548 N   0  0
    0.1585    4.4483   -0.9759 N   0  3
    0.6119    4.7200   -2.1108 O   0  5
    0.3296    5.1960    0.0136 O   0  0
   -3.2994   -0.4550    1.0029 O   0  0
   -4.6784    5.1057   -1.7667 H   0  0
   -2.2433    5.2910   -1.4841 H   0  0
    0.0099    0.0052    0.0001 H   0  0
    1.2078    2.1264   -0.3158 H   0  0
   -5.7519    2.8779   -1.4096 H   0  0
   -3.3399   -0.6695   -1.0417 H   0  0
   -1.8897   -1.2938   -0.2394 H   0  0
   -3.7285   -1.3208    1.1001 H   0  0
  1  2  2  0
  1  5  1  0
  2  6  1  0
  3  4  2  0
  3  7  1  0
  4  9  1  0
  5 11  2  0
  6  8  1  0
  6  9  2  0
  7  8  2  0
  7 10  1  0
  8 11  1  0
  9 12  1  0
 10 15  1  0
 12 13  1  0
 12 14  2  0
  1 16  1  0
  2 17  1  0
  3 18  1  0
  4 19  1  0
  5 20  1  0
 10 21  1  0
 10 22  1  0
 15 23  1  0
M  CHG  2  12   1  13  -1
M  END
> <Name>
BR020173

$$$$
BR020174
  SciTegic05062102053D

 19 20  0  0  0  0            999 V2000
    1.8851   -1.0363   -0.1124 C   0  0
    2.8783   -1.6520    2.0022 C   0  0
    0.8066   -0.4630    0.5610 C   0  0
    1.7997   -1.0786    2.6757 C   0  0
    2.9210   -1.6309    0.6081 C   0  0
    0.7638   -0.4841    1.9551 C   0  0
    4.0572   -2.2347   -0.1008 C   0  0
   -0.3900    0.1288    2.6748 C   0  0
    4.8754   -3.1448    0.4611 N   0  5
    4.3775   -1.9304   -1.3728 N   0  0
    5.7657   -3.4290   -0.5223 N   0  0
    5.4667   -2.6994   -1.6241 N   0  0
    1.9051   -1.0128   -1.1992 H   0  0
    3.6787   -2.1113    2.5772 H   0  0
    0.0043   -0.0016   -0.0088 H   0  0
    1.7747   -1.1002    3.7619 H   0  0
   -1.1814   -0.6145    2.8301 H   0  0
   -0.0854    0.5226    3.6530 H   0  0
   -0.8096    0.9713    2.1098 H   0  0
  1  3  1  0
  1  5  2  0
  2  4  2  0
  2  5  1  0
  3  6  2  0
  4  6  1  0
  5  7  1  0
  6  8  1  0
  7  9  1  0
  7 10  2  0
  9 11  1  0
 10 12  1  0
 11 12  2  0
  1 13  1  0
  2 14  1  0
  3 15  1  0
  4 16  1  0
  8 17  1  0
  8 18  1  0
  8 19  1  0
M  CHG  1   9  -1
M  END
> <Name>
BR020174

$$$$
BR020175
  SciTegic05062102053D

 19 20  0  0  0  0            999 V2000
    1.8851   -1.0363   -0.1124 C   0  0
    2.8783   -1.6520    2.0022 C   0  0
    0.8066   -0.4630    0.5610 C   0  0
    1.7997   -1.0786    2.6757 C   0  0
    2.9210   -1.6309    0.6081 C   0  0
    0.7638   -0.4841    1.9551 C   0  0
    4.0572   -2.2347   -0.1008 C   0  0
   -0.3900    0.1288    2.6748 C   0  0
    4.8754   -3.1448    0.4611 N   0  5
    4.3775   -1.9304   -1.3728 N   0  0
    5.7657   -3.4290   -0.5223 N   0  0
    5.4667   -2.6994   -1.6241 N   0  0
    0.1656    1.8083    3.4838 Br  0  0
    1.9051   -1.0128   -1.1992 H   0  0
    3.6787   -2.1113    2.5772 H   0  0
    0.0043   -0.0016   -0.0088 H   0  0
    1.7747   -1.1002    3.7619 H   0  0
   -0.7625   -0.5109    3.4828 H   0  0
   -1.2256    0.3553    2.0028 H   0  0
  1  3  1  0
  1  5  2  0
  2  4  2  0
  2  5  1  0
  3  6  2  0
  4  6  1  0
  5  7  1  0
  6  8  1  0
  7  9  1  0
  7 10  2  0
  8 13  1  0
  9 11  1  0
 10 12  1  0
 11 12  2  0
  1 14  1  0
  2 15  1  0
  3 16  1  0
  4 17  1  0
  8 18  1  0
  8 19  1  0
M  CHG  1   9  -1
M  END
> <Name>
BR020175

$$$$
BR020176
  SciTegic05062102053D

 21 21  0  0  0  0            999 V2000
    1.8851   -1.0363   -0.1124 C   0  0
    0.7638   -0.4841    1.9551 C   0  0
    0.8066   -0.4630    0.5610 C   0  0
    2.8783   -1.6520    2.0022 C   0  0
    2.9210   -1.6309    0.6081 C   0  0
    1.7997   -1.0786    2.6757 C   0  0
   -0.2866    0.1643   -0.1994 C   0  0
    3.9911   -2.2907    2.7763 C   0  0
    4.0098   -2.2086   -0.1024 N   0  3
    1.7324   -1.0870    4.0968 N   0  3
   -1.2709    0.6861    0.4467 O   0  5
    5.0031   -1.4936   -0.3735 O   0  5
    1.1742   -2.0515    4.6706 O   0  5
   -0.2228    0.1704   -1.4856 O   0  0
    3.9431   -3.4151   -0.4354 O   0  0
    2.2337   -0.1298    4.7320 O   0  0
    1.9145   -1.0177   -1.2001 H   0  0
   -0.0795   -0.0357    2.4765 H   0  0
    4.7659   -1.5505    2.9988 H   0  0
    3.6220   -2.7105    3.7181 H   0  0
    4.4400   -3.1134    2.2095 H   0  0
  1  3  2  0
  1  5  1  0
  2  3  1  0
  2  6  2  0
  3  7  1  0
  4  5  2  0
  4  6  1  0
  4  8  1  0
  5  9  1  0
  6 10  1  0
  7 11  1  0
  7 14  2  0
  9 12  1  0
  9 15  2  0
 10 13  1  0
 10 16  2  0
  1 17  1  0
  2 18  1  0
  8 19  1  0
  8 20  1  0
  8 21  1  0
M  CHG  5   9   1  10   1  11  -1  12  -1  13  -1
M  END
> <Name>
BR020176

$$$$
BR020177
  SciTegic05062102053D

 21 21  0  0  0  0            999 V2000
    1.8851   -1.0363   -0.1124 C   0  0
    0.7638   -0.4841    1.9551 C   0  0
    0.8066   -0.4630    0.5610 C   0  0
    2.8783   -1.6520    2.0022 C   0  0
    2.9210   -1.6309    0.6081 C   0  0
    1.7997   -1.0786    2.6757 C   0  0
   -0.2866    0.1643   -0.1994 C   0  0
    3.9911   -2.2907    2.7763 C   0  0
    4.0098   -2.2086   -0.1024 N   0  3
    1.7324   -1.0870    4.0968 N   0  3
   -1.2709    0.6861    0.4467 O   0  5
    5.0031   -1.4936   -0.3735 O   0  5
    1.1742   -2.0515    4.6706 O   0  5
   -0.2228    0.1704   -1.4856 O   0  0
    3.9431   -3.4151   -0.4354 O   0  0
    2.2337   -0.1298    4.7320 O   0  0
    3.3826   -3.9902    3.4951 Br  0  0
    1.9145   -1.0177   -1.2001 H   0  0
   -0.0795   -0.0357    2.4765 H   0  0
    4.3077   -1.6731    3.6210 H   0  0
    4.8615   -2.4950    2.1469 H   0  0
  1  3  2  0
  1  5  1  0
  2  3  1  0
  2  6  2  0
  3  7  1  0
  4  5  2  0
  4  6  1  0
  4  8  1  0
  5  9  1  0
  6 10  1  0
  7 11  1  0
  7 14  2  0
  8 17  1  0
  9 12  1  0
  9 15  2  0
 10 13  1  0
 10 16  2  0
  1 18  1  0
  2 19  1  0
  8 20  1  0
  8 21  1  0
M  CHG  5   9   1  10   1  11  -1  12  -1  13  -1
M  END
> <Name>
BR020177

$$$$
BR020178
  SciTegic05062102053D

 22 22  0  0  0  0            999 V2000
    1.8851   -1.0363   -0.1124 C   0  0
    0.7638   -0.4841    1.9551 C   0  0
    0.8066   -0.4630    0.5610 C   0  0
    2.8783   -1.6520    2.0022 C   0  0
    2.9210   -1.6309    0.6081 C   0  0
    1.7997   -1.0786    2.6757 C   0  0
   -0.2866    0.1643   -0.1994 C   0  0
    3.9911   -2.2907    2.7763 C   0  0
    4.0098   -2.2086   -0.1024 N   0  3
    1.7324   -1.0870    4.0968 N   0  3
   -1.2709    0.6861    0.4467 O   0  5
    5.0031   -1.4936   -0.3735 O   0  5
    1.1742   -2.0515    4.6706 O   0  5
   -0.2228    0.1704   -1.4856 O   0  0
    3.9431   -3.4151   -0.4354 O   0  0
    2.2337   -0.1298    4.7320 O   0  0
    3.8706   -3.7026    2.6852 O   0  0
    1.9145   -1.0177   -1.2001 H   0  0
   -0.0795   -0.0357    2.4765 H   0  0
    4.9684   -1.9908    2.3810 H   0  0
    3.9516   -1.9954    3.8311 H   0  0
    4.6047   -4.0813    3.1961 H   0  0
  1  3  2  0
  1  5  1  0
  2  3  1  0
  2  6  2  0
  3  7  1  0
  4  5  2  0
  4  6  1  0
  4  8  1  0
  5  9  1  0
  6 10  1  0
  7 11  1  0
  7 14  2  0
  8 17  1  0
  9 12  1  0
  9 15  2  0
 10 13  1  0
 10 16  2  0
  1 18  1  0
  2 19  1  0
  8 20  1  0
  8 21  1  0
 17 22  1  0
M  CHG  5   9   1  10   1  11  -1  12  -1  13  -1
M  END
> <Name>
BR020178

$$$$
BR020179
  SciTegic05062102053D

 26 26  0  0  0  0            999 V2000
    1.8851   -1.0363   -0.1124 C   0  0
    0.7638   -0.4841    1.9551 C   0  0
    0.8066   -0.4630    0.5610 C   0  0
    2.8783   -1.6520    2.0022 C   0  0
    2.9210   -1.6309    0.6081 C   0  0
    1.7997   -1.0786    2.6757 C   0  0
   -0.2741    0.1565   -0.1903 C   0  0
   -0.8031    1.3166   -2.2065 C   0  0
    3.9912   -2.2910    2.7759 C   0  0
    4.0094   -2.2093   -0.1026 N   0  3
    1.7324   -1.0875    4.0967 N   0  3
    5.0030   -1.4950   -0.3738 O   0  5
    1.1740   -2.0521    4.6702 O   0  5
   -1.4507    0.2098    0.1909 O   0  0
    3.9418   -3.4157   -0.4357 O   0  0
    2.2339   -0.1306    4.7323 O   0  0
    3.8704   -3.7029    2.6846 O   0  0
    0.1708    0.6767   -1.3748 O   0  0
    1.9151   -1.0182   -1.2001 H   0  0
   -0.0791   -0.0352    2.4768 H   0  0
   -0.3213    1.6857   -3.1152 H   0  0
   -1.2606    2.1460   -1.6613 H   0  0
   -1.5739    0.5903   -2.4747 H   0  0
    4.9685   -1.9912    2.3803 H   0  0
    3.9521   -1.9959    3.8307 H   0  0
    4.6046   -4.0818    3.1952 H   0  0
  1  3  2  0
  1  5  1  0
  2  3  1  0
  2  6  2  0
  3  7  1  0
  4  5  2  0
  4  6  1  0
  4  9  1  0
  5 10  1  0
  6 11  1  0
  7 14  2  0
  7 18  1  0
  8 18  1  0
  9 17  1  0
 10 12  1  0
 10 15  2  0
 11 13  1  0
 11 16  2  0
  1 19  1  0
  2 20  1  0
  8 21  1  0
  8 22  1  0
  8 23  1  0
  9 24  1  0
  9 25  1  0
 17 26  1  0
M  CHG  4  10   1  11   1  12  -1  13  -1
M  END
> <Name>
BR020179

$$$$
BR020180
  SciTegic05062102053D

 25 25  0  0  0  0            999 V2000
    1.8851   -1.0363   -0.1124 C   0  0
    0.7638   -0.4841    1.9551 C   0  0
    0.8066   -0.4630    0.5610 C   0  0
    2.8783   -1.6520    2.0022 C   0  0
    2.9210   -1.6309    0.6081 C   0  0
    1.7997   -1.0786    2.6757 C   0  0
   -0.2741    0.1565   -0.1903 C   0  0
    3.9912   -2.2910    2.7759 C   0  0
   -0.8031    1.3166   -2.2065 C   0  0
    4.0094   -2.2093   -0.1026 N   0  3
    1.7324   -1.0875    4.0967 N   0  3
    5.0030   -1.4950   -0.3738 O   0  5
    1.1740   -2.0521    4.6702 O   0  5
   -1.4507    0.2098    0.1909 O   0  0
    3.9418   -3.4157   -0.4357 O   0  0
    2.2339   -0.1306    4.7323 O   0  0
    0.1708    0.6767   -1.3748 O   0  0
    1.9151   -1.0182   -1.2001 H   0  0
   -0.0791   -0.0352    2.4768 H   0  0
    4.7662   -1.5510    2.9982 H   0  0
    3.6224   -2.7109    3.7177 H   0  0
    4.4399   -3.1137    2.2088 H   0  0
   -0.3213    1.6857   -3.1152 H   0  0
   -1.2606    2.1460   -1.6613 H   0  0
   -1.5739    0.5903   -2.4747 H   0  0
  1  3  2  0
  1  5  1  0
  2  3  1  0
  2  6  2  0
  3  7  1  0
  4  5  2  0
  4  6  1  0
  4  8  1  0
  5 10  1  0
  6 11  1  0
  7 14  2  0
  7 17  1  0
  9 17  1  0
 10 12  1  0
 10 15  2  0
 11 13  1  0
 11 16  2  0
  1 18  1  0
  2 19  1  0
  8 20  1  0
  8 21  1  0
  8 22  1  0
  9 23  1  0
  9 24  1  0
  9 25  1  0
M  CHG  4  10   1  11   1  12  -1  13  -1
M  END
> <Name>
BR020180

$$$$
BR020181
  SciTegic05062102053D

 25 25  0  0  0  0            999 V2000
    1.8851   -1.0363   -0.1124 C   0  0
    0.7638   -0.4841    1.9551 C   0  0
    0.8066   -0.4630    0.5610 C   0  0
    2.8783   -1.6520    2.0022 C   0  0
    2.9210   -1.6309    0.6081 C   0  0
    1.7997   -1.0786    2.6757 C   0  0
   -0.2741    0.1565   -0.1903 C   0  0
   -0.8031    1.3166   -2.2065 C   0  0
    3.9912   -2.2910    2.7759 C   0  0
    4.0094   -2.2093   -0.1026 N   0  3
    1.7324   -1.0875    4.0967 N   0  3
    5.0030   -1.4950   -0.3738 O   0  5
    1.1740   -2.0521    4.6702 O   0  5
   -1.4507    0.2098    0.1909 O   0  0
    3.9418   -3.4157   -0.4357 O   0  0
    2.2339   -0.1306    4.7323 O   0  0
    0.1708    0.6767   -1.3748 O   0  0
    5.4264   -1.2457    2.7782 Cl  0  0
    1.9151   -1.0182   -1.2001 H   0  0
   -0.0791   -0.0352    2.4768 H   0  0
   -0.3213    1.6857   -3.1152 H   0  0
   -1.2606    2.1460   -1.6613 H   0  0
   -1.5739    0.5903   -2.4747 H   0  0
    4.2709   -3.2569    2.3412 H   0  0
    3.6969   -2.4722    3.8154 H   0  0
  1  3  2  0
  1  5  1  0
  2  3  1  0
  2  6  2  0
  3  7  1  0
  4  5  2  0
  4  6  1  0
  4  9  1  0
  5 10  1  0
  6 11  1  0
  7 14  2  0
  7 17  1  0
  8 17  1  0
  9 18  1  0
 10 12  1  0
 10 15  2  0
 11 13  1  0
 11 16  2  0
  1 19  1  0
  2 20  1  0
  8 21  1  0
  8 22  1  0
  8 23  1  0
  9 24  1  0
  9 25  1  0
M  CHG  4  10   1  11   1  12  -1  13  -1
M  END
> <Name>
BR020181

$$$$
BR020182
  SciTegic05062102053D

 23 23  0  0  0  0            999 V2000
    1.8851   -1.0363   -0.1124 C   0  0
    0.8066   -0.4630    0.5610 C   0  0
    2.8783   -1.6520    2.0022 C   0  0
    2.9210   -1.6309    0.6081 C   0  0
    0.7638   -0.4841    1.9551 C   0  0
    1.7997   -1.0786    2.6757 C   0  0
    4.0457   -2.2287   -0.0938 C   0  0
    4.6979   -3.3287   -2.1080 C   0  0
   -0.4059    0.1394    2.6460 C   0  0
    1.7770   -1.1109    4.0974 N   0  3
    2.2972   -0.1639    4.7331 O   0  5
    5.1971   -2.2950    0.3567 O   0  0
    1.2371   -2.0853    4.6725 O   0  0
    3.6746   -2.7128   -1.3186 O   0  0
   -1.0635   -0.7883    3.3952 F   0  0
    1.9086   -1.0143   -1.1992 H   0  0
    0.0037   -0.0038   -0.0100 H   0  0
    3.6886   -2.1163    2.5608 H   0  0
    4.2728   -3.6697   -3.0551 H   0  0
    5.1218   -4.1746   -1.5610 H   0  0
    5.4832   -2.5955   -2.3067 H   0  0
   -1.1217    0.5575    1.9305 H   0  0
   -0.0960    0.9488    3.3154 H   0  0
  1  2  2  0
  1  4  1  0
  2  5  1  0
  3  4  2  0
  3  6  1  0
  4  7  1  0
  5  6  2  0
  5  9  1  0
  6 10  1  0
  7 12  2  0
  7 14  1  0
  8 14  1  0
  9 15  1  0
 10 11  1  0
 10 13  2  0
  1 16  1  0
  2 17  1  0
  3 18  1  0
  8 19  1  0
  8 20  1  0
  8 21  1  0
  9 22  1  0
  9 23  1  0
M  CHG  2  10   1  11  -1
M  END
> <Name>
BR020182

$$$$
BR020183
  SciTegic05062102053D

 19 19  0  0  0  0            999 V2000
    1.8851   -1.0363   -0.1124 C   0  0
    0.8066   -0.4630    0.5610 C   0  0
    2.8783   -1.6520    2.0022 C   0  0
    2.9210   -1.6309    0.6081 C   0  0
    0.7638   -0.4841    1.9551 C   0  0
    1.7997   -1.0786    2.6757 C   0  0
    4.0589   -2.2355   -0.1031 C   0  0
   -0.4061    0.1390    2.6458 C   0  0
    1.7768   -1.1112    4.0974 N   0  3
    5.0026   -2.7779    0.5853 O   0  5
    2.2969   -0.1643    4.7334 O   0  5
    4.0736   -2.2022   -1.3905 O   0  0
    1.2370   -2.0858    4.6722 O   0  0
   -1.0634   -0.7889    3.3951 F   0  0
    1.9087   -1.0145   -1.1989 H   0  0
    0.0045   -0.0024   -0.0098 H   0  0
    3.6885   -2.1166    2.5606 H   0  0
   -1.1221    0.5569    1.9304 H   0  0
   -0.0966    0.9485    3.3153 H   0  0
  1  2  2  0
  1  4  1  0
  2  5  1  0
  3  4  2  0
  3  6  1  0
  4  7  1  0
  5  6  2  0
  5  8  1  0
  6  9  1  0
  7 10  1  0
  7 12  2  0
  8 14  1  0
  9 11  1  0
  9 13  2  0
  1 15  1  0
  2 16  1  0
  3 17  1  0
  8 18  1  0
  8 19  1  0
M  CHG  3   9   1  10  -1  11  -1
M  END
> <Name>
BR020183

$$$$
BR020184
  SciTegic05062102053D

 18 18  0  0  0  0            999 V2000
    1.8851   -1.0363   -0.1124 C   0  0
    2.8783   -1.6520    2.0022 C   0  0
    0.8066   -0.4630    0.5610 C   0  0
    1.7997   -1.0786    2.6757 C   0  0
    2.9210   -1.6309    0.6081 C   0  0
    0.7638   -0.4841    1.9551 C   0  0
    4.0584   -2.2362   -0.1030 C   0  0
   -0.3884    0.1316    2.6741 C   0  0
    5.0023   -2.7786    0.5853 O   0  5
    4.0730   -2.2035   -1.3905 O   0  0
   -0.2663    1.5483    2.6365 O   0  0
    1.9086   -1.0147   -1.1989 H   0  0
    3.6804   -2.1131    2.5728 H   0  0
    0.0042   -0.0024   -0.0091 H   0  0
    1.7748   -1.0998    3.7620 H   0  0
   -1.3453   -0.1503    2.2138 H   0  0
   -0.4203   -0.1921    3.7235 H   0  0
   -1.0320    1.9070    3.1130 H   0  0
  1  3  1  0
  1  5  2  0
  2  4  2  0
  2  5  1  0
  3  6  2  0
  4  6  1  0
  5  7  1  0
  6  8  1  0
  7  9  1  0
  7 10  2  0
  8 11  1  0
  1 12  1  0
  2 13  1  0
  3 14  1  0
  4 15  1  0
  8 16  1  0
  8 17  1  0
 11 18  1  0
M  CHG  1   9  -1
M  END
> <Name>
BR020184

$$$$
BR020185
  SciTegic05062102053D

 41 42  0  0  0  0            999 V2000
   -2.0409    3.3505    1.5783 C   0  0
   -1.3581    3.5800    3.8844 C   0  0
   -3.9471   -4.1258    4.0105 C   0  0
   -3.6700   -4.6144    1.6607 C   0  0
   -1.5304    2.0526    1.5563 C   0  0
   -0.8477    2.2821    3.8625 C   0  0
   -2.8542   -3.2606    3.9595 C   0  0
   -2.5771   -3.7492    1.6097 C   0  0
   -1.9546    4.1143    2.7423 C   0  0
   -4.3550   -4.8027    2.8612 C   0  0
   -0.9339    1.5184    2.6984 C   0  0
   -2.1692   -3.0723    2.7591 C   0  0
   -2.4870    5.4675    2.7665 C   0  0
   -5.4948   -5.7047    2.9131 C   0  0
   -2.7976    7.3936    4.1397 C   0  0
   -6.8456   -7.1823    1.6155 C   0  0
   -0.3892    0.1300    2.6748 C   0  0
   -0.9943   -2.1406    2.7045 C   0  0
   -3.0324    6.0227    1.8035 O   0  0
   -6.1614   -5.9328    3.9312 O   0  0
   -2.3120    6.0552    3.9896 O   0  0
   -5.7429   -6.2727    1.6933 O   0  0
   -1.4642   -0.7999    2.7248 O   0  0
   -2.5039    3.7574    0.6831 H   0  0
   -1.2853    4.1659    4.7970 H   0  0
   -4.4741   -4.2655    4.9508 H   0  0
   -3.9789   -5.1366    0.7589 H   0  0
   -1.6022    1.4646    0.6453 H   0  0
   -0.3849    1.8736    4.7571 H   0  0
   -2.5435   -2.7371    4.8597 H   0  0
   -2.0495   -3.6080    0.6700 H   0  0
   -2.5969    7.7431    5.1554 H   0  0
   -3.8720    7.4168    3.9407 H   0  0
   -2.2828    8.0407    3.4257 H   0  0
   -6.9343   -7.5621    0.5947 H   0  0
   -7.7650   -6.6674    1.9053 H   0  0
   -6.6670   -8.0166    2.2979 H   0  0
    0.1938   -0.0562    1.7625 H   0  0
    0.2740   -0.0505    3.5317 H   0  0
   -0.3288   -2.2988    3.5600 H   0  0
   -0.4124   -2.3035    1.7909 H   0  0
  1  5  1  0
  1  9  2  0
  2  6  2  0
  2  9  1  0
  3  7  1  0
  3 10  2  0
  4  8  2  0
  4 10  1  0
  5 11  2  0
  6 11  1  0
  7 12  2  0
  8 12  1  0
  9 13  1  0
 10 14  1  0
 11 17  1  0
 12 18  1  0
 13 19  2  0
 13 21  1  0
 14 20  2  0
 14 22  1  0
 15 21  1  0
 16 22  1  0
 17 23  1  0
 18 23  1  0
  1 24  1  0
  2 25  1  0
  3 26  1  0
  4 27  1  0
  5 28  1  0
  6 29  1  0
  7 30  1  0
  8 31  1  0
 15 32  1  0
 15 33  1  0
 15 34  1  0
 16 35  1  0
 16 36  1  0
 16 37  1  0
 17 38  1  0
 17 39  1  0
 18 40  1  0
 18 41  1  0
M  END
> <Name>
BR020185

$$$$
BR020186
  SciTegic05062102053D

 21 21  0  0  0  0            999 V2000
    1.8851   -1.0363   -0.1124 C   0  0
    2.8783   -1.6520    2.0022 C   0  0
    0.8066   -0.4630    0.5610 C   0  0
    1.7997   -1.0786    2.6757 C   0  0
    2.9210   -1.6309    0.6081 C   0  0
    0.7638   -0.4841    1.9551 C   0  0
    4.0464   -2.2285   -0.0930 C   0  0
    6.1162   -3.3764    0.2070 C   0  0
   -0.3892    0.1300    2.6748 C   0  0
    4.1692   -2.2562   -1.3247 O   0  0
    4.9583   -2.7582    0.7786 O   0  0
   -0.6326   -0.5211    3.8425 F   0  0
   -1.5258    0.0342    1.9362 F   0  0
    1.9089   -1.0145   -1.1989 H   0  0
    3.6797   -2.1125    2.5740 H   0  0
    0.0041   -0.0017   -0.0084 H   0  0
    1.7748   -1.0992    3.7621 H   0  0
    6.7591   -3.7558    1.0050 H   0  0
    6.6598   -2.6456   -0.3970 H   0  0
    5.7988   -4.2070   -0.4280 H   0  0
   -0.2259    1.1844    2.9053 H   0  0
  1  3  1  0
  1  5  2  0
  2  4  2  0
  2  5  1  0
  3  6  2  0
  4  6  1  0
  5  7  1  0
  6  9  1  0
  7 10  2  0
  7 11  1  0
  8 11  1  0
  9 12  1  0
  9 13  1  0
  1 14  1  0
  2 15  1  0
  3 16  1  0
  4 17  1  0
  8 18  1  0
  8 19  1  0
  8 20  1  0
  9 21  1  0
M  END
> <Name>
BR020186

$$$$
BR020187
  SciTegic05062102053D

 17 17  0  0  0  0            999 V2000
    1.8851   -1.0363   -0.1124 C   0  0
    2.8783   -1.6520    2.0022 C   0  0
    0.8066   -0.4630    0.5610 C   0  0
    1.7997   -1.0786    2.6757 C   0  0
    2.9210   -1.6309    0.6081 C   0  0
    0.7638   -0.4841    1.9551 C   0  0
    4.0584   -2.2362   -0.1030 C   0  0
   -0.3884    0.1316    2.6741 C   0  0
    5.0023   -2.7786    0.5853 O   0  5
    4.0730   -2.2035   -1.3905 O   0  0
   -0.6334   -0.5188    3.8419 F   0  0
   -1.5251    0.0374    1.9352 F   0  0
    1.9086   -1.0147   -1.1989 H   0  0
    3.6804   -2.1131    2.5728 H   0  0
    0.0042   -0.0024   -0.0091 H   0  0
    1.7748   -1.0998    3.7620 H   0  0
   -0.2239    1.1860    2.9046 H   0  0
  1  3  1  0
  1  5  2  0
  2  4  2  0
  2  5  1  0
  3  6  2  0
  4  6  1  0
  5  7  1  0
  6  8  1  0
  7  9  1  0
  7 10  2  0
  8 11  1  0
  8 12  1  0
  1 13  1  0
  2 14  1  0
  3 15  1  0
  4 16  1  0
  8 17  1  0
M  CHG  1   9  -1
M  END
> <Name>
BR020187

$$$$
BR020188
  SciTegic05062102053D

 19 19  0  0  0  0            999 V2000
    1.8851   -1.0363   -0.1124 C   0  0
    0.8066   -0.4630    0.5610 C   0  0
    2.8783   -1.6520    2.0022 C   0  0
    2.9210   -1.6309    0.6081 C   0  0
    0.7638   -0.4841    1.9551 C   0  0
    1.7997   -1.0786    2.6757 C   0  0
    4.0589   -2.2355   -0.1031 C   0  0
   -0.4061    0.1390    2.6458 C   0  0
    1.7768   -1.1112    4.0974 N   0  3
    5.0026   -2.7779    0.5853 O   0  5
    2.2969   -0.1643    4.7334 O   0  5
    4.0736   -2.2022   -1.3905 O   0  0
    1.2370   -2.0858    4.6722 O   0  0
   -1.2699    0.6703    1.7430 F   0  0
   -0.0033    1.1604    3.4446 F   0  0
    1.9087   -1.0145   -1.1989 H   0  0
    0.0045   -0.0024   -0.0098 H   0  0
    3.6885   -2.1166    2.5606 H   0  0
   -0.9551   -0.5751    3.2603 H   0  0
  1  2  2  0
  1  4  1  0
  2  5  1  0
  3  4  2  0
  3  6  1  0
  4  7  1  0
  5  6  2  0
  5  8  1  0
  6  9  1  0
  7 10  1  0
  7 12  2  0
  8 14  1  0
  8 15  1  0
  9 11  1  0
  9 13  2  0
  1 16  1  0
  2 17  1  0
  3 18  1  0
  8 19  1  0
M  CHG  3   9   1  10  -1  11  -1
M  END
> <Name>
BR020188

$$$$
BR020189
  SciTegic05062102053D

 30 30  0  0  0  0            999 V2000
    4.3726   -3.1591    0.9067 C   0  0
    5.4868   -3.7317    0.2932 C   0  0
    2.9977   -3.8308   -0.9629 C   0  0
    3.1281   -3.2087    0.2787 C   0  0
    5.3564   -4.3538   -0.9484 C   0  0
    4.1119   -4.4034   -1.5765 C   0  0
    1.9413   -2.5989    0.9320 C   0  0
    1.4525   -1.3583    4.3613 C   0  0
   -0.0914   -3.1093    3.4144 C   0  0
    6.5700   -4.9572   -1.5789 C   0  0
    0.8914   -1.9919    3.0965 C   0  0
    2.0086   -2.5484    2.2952 N   0  0
    3.9562   -5.0321   -2.8428 N   0  3
    4.1045   -4.3463   -3.8817 O   0  5
    1.0051   -2.2138    0.2364 O   0  0
    3.6757   -6.2533   -2.8822 O   0  0
    7.1574   -3.9350   -2.9082 Cl  0  0
    4.4853   -2.6765    1.8744 H   0  0
    6.4517   -3.6890    0.7919 H   0  0
    2.0252   -3.8670   -1.4499 H   0  0
    1.9582   -2.1062    4.9808 H   0  0
    2.1725   -0.5663    4.1264 H   0  0
    0.6519   -0.9084    4.9586 H   0  0
    0.3879   -3.8877    4.0181 H   0  0
   -0.4639   -3.5741    2.4957 H   0  0
   -0.9518   -2.7365    3.9813 H   0  0
    6.3555   -5.9535   -1.9842 H   0  0
    7.3830   -5.0708   -0.8514 H   0  0
    0.3909   -1.2265    2.4934 H   0  0
    2.7619   -2.9305    2.8269 H   0  0
  1  2  1  0
  1  4  2  0
  2  5  2  0
  3  4  1  0
  3  6  2  0
  4  7  1  0
  5  6  1  0
  5 10  1  0
  6 13  1  0
  7 12  1  0
  7 15  2  0
  8 11  1  0
  9 11  1  0
 10 17  1  0
 11 12  1  0
 13 14  1  0
 13 16  2  0
  1 18  1  0
  2 19  1  0
  3 20  1  0
  8 21  1  0
  8 22  1  0
  8 23  1  0
  9 24  1  0
  9 25  1  0
  9 26  1  0
 10 27  1  0
 10 28  1  0
 11 29  1  0
 12 30  1  0
M  CHG  2  13   1  14  -1
M  END
> <Name>
BR020189

$$$$
BR020190
  SciTegic05062102053D

 34 35  0  0  0  0            999 V2000
    7.9748    0.2084   -3.3262 C   0  0
    7.0891   -0.8225   -3.6396 C   0  0
    8.3949    0.3907   -2.0087 C   0  0
    3.0476   -1.2708    1.9498 C   0  0
    6.6235   -1.6713   -2.6354 C   0  0
    7.9293   -0.4581   -1.0045 C   0  0
    1.9688   -0.6974    2.6228 C   0  0
    1.7155   -1.4176   -0.0604 C   0  0
    2.9210   -1.6309    0.6081 C   0  0
    7.0436   -1.4891   -1.3178 C   0  0
    0.7633   -0.4842    1.9542 C   0  0
    0.6367   -0.8443    0.6126 C   0  0
    4.0457   -2.2287   -0.0938 C   0  0
    6.5426   -2.4021   -0.2364 C   0  0
   -0.3734    0.1318    2.7045 C   0  0
    5.3270   -1.9074    0.3691 N   0  0
   -0.5833   -0.6365   -0.0884 N   0  3
   -1.4456   -1.5465   -0.0863 O   0  5
    3.8558   -2.9728   -1.0723 O   0  0
   -0.7601    0.4506   -0.6872 O   0  0
   -1.5931   -1.0952    3.1094 Cl  0  0
    8.3383    0.8684   -4.1085 H   0  0
    6.7627   -0.9652   -4.6656 H   0  0
    9.0854    1.1926   -1.7645 H   0  0
    3.9826   -1.4327    2.4804 H   0  0
    5.9334   -2.4718   -2.8888 H   0  0
    8.2619   -0.3085    0.0193 H   0  0
    2.0785   -0.4189    3.6678 H   0  0
    1.6205   -1.7004   -1.1070 H   0  0
    6.3372   -3.4003   -0.6383 H   0  0
    7.2885   -2.5181    0.5569 H   0  0
   -0.8622    0.9166    2.1145 H   0  0
   -0.0312    0.5936    3.6388 H   0  0
    5.4275   -1.2455    1.1316 H   0  0
  1  2  1  0
  1  3  2  0
  2  5  2  0
  3  6  1  0
  4  7  1  0
  4  9  2  0
  5 10  1  0
  6 10  2  0
  7 11  2  0
  8  9  1  0
  8 12  2  0
  9 13  1  0
 10 14  1  0
 11 12  1  0
 11 15  1  0
 12 17  1  0
 13 16  1  0
 13 19  2  0
 14 16  1  0
 15 21  1  0
 17 18  1  0
 17 20  2  0
  1 22  1  0
  2 23  1  0
  3 24  1  0
  4 25  1  0
  5 26  1  0
  6 27  1  0
  7 28  1  0
  8 29  1  0
 14 30  1  0
 14 31  1  0
 15 32  1  0
 15 33  1  0
 16 34  1  0
M  CHG  2  17   1  18  -1
M  END
> <Name>
BR020190

$$$$
BR020191
  SciTegic05062102053D

 29 29  0  0  0  0            999 V2000
   -3.7096   -2.0832   -2.6432 C   0  0
   -1.5163   -1.8401   -3.6269 C   0  0
   -4.2139   -2.5074   -3.8726 C   0  0
   -2.0206   -2.2644   -4.8562 C   0  0
   -2.3608   -1.7494   -2.5204 C   0  0
   -3.3694   -2.5981   -4.9790 C   0  0
   -0.1516   -0.6002    0.0170 C   0  0
   -1.0259   -0.4829    1.2443 C   0  0
    1.3089   -0.2033    0.1564 C   0  0
    1.4353    1.2591    0.5526 C   0  0
   -0.5561   -0.9885   -1.1546 N   0  0
   -1.8535   -1.3208   -1.2828 N   0  0
   -3.8809   -3.0346   -6.2297 N   0  3
   -5.0962   -3.3342   -6.3184 O   0  5
   -3.1037   -3.1084   -7.2120 O   0  0
    0.8382    2.0723   -0.4495 O   0  0
   -4.3769   -2.0151   -1.7877 H   0  0
   -0.4637   -1.5824   -3.5416 H   0  0
   -5.2670   -2.7649   -3.9547 H   0  0
   -1.3507   -2.3322   -5.7099 H   0  0
   -1.4765    0.5127    1.2812 H   0  0
   -0.4349   -0.6300    2.1522 H   0  0
   -1.8090   -1.2453    1.2164 H   0  0
    1.7659   -0.8442    0.9178 H   0  0
    1.8175   -0.3882   -0.7968 H   0  0
    0.9445    1.4669    1.5085 H   0  0
    2.4915    1.5360    0.6279 H   0  0
   -2.4978   -1.2671   -0.5036 H   0  0
    0.9399    2.9930   -0.1595 H   0  0
  1  3  2  0
  1  5  1  0
  2  4  1  0
  2  5  2  0
  3  6  1  0
  4  6  2  0
  5 12  1  0
  6 13  1  0
  7  8  1  0
  7  9  1  0
  7 11  2  0
  9 10  1  0
 10 16  1  0
 11 12  1  0
 13 14  1  0
 13 15  2  0
  1 17  1  0
  2 18  1  0
  3 19  1  0
  4 20  1  0
  8 21  1  0
  8 22  1  0
  8 23  1  0
  9 24  1  0
  9 25  1  0
 10 26  1  0
 10 27  1  0
 12 28  1  0
 16 29  1  0
M  CHG  2  13   1  14  -1
M  END
> <Name>
BR020191

$$$$
BR020192
  SciTegic05062102053D

 29 29  0  0  0  0            999 V2000
    0.9508   -1.5028   -4.4446 C   0  0
   -1.3286   -1.8057   -3.7031 C   0  0
    0.5881   -1.9138   -5.7272 C   0  0
   -1.6913   -2.2166   -4.9858 C   0  0
   -0.0076   -1.4488   -3.4324 C   0  0
   -0.7329   -2.2706   -5.9978 C   0  0
   -0.1385   -1.1938    0.0581 C   0  0
   -1.0107   -1.1803    1.2924 C   0  0
    1.3491   -1.4357    0.2537 C   0  0
    2.0911   -0.1206    0.4314 C   0  0
   -0.5561   -0.9885   -1.1546 N   0  0
    0.3580   -1.0365   -2.1406 N   0  0
   -1.1040   -2.6843   -7.3045 N   0  3
   -0.2279   -2.7221   -8.2021 O   0  5
   -2.2977   -3.0013   -7.5258 O   0  0
    1.5762    0.5613    1.5681 O   0  0
    1.9833   -1.2281   -4.2444 H   0  0
   -2.0831   -1.7670   -2.9214 H   0  0
    1.3448   -1.9511   -6.5071 H   0  0
   -2.7249   -2.4900   -5.1832 H   0  0
   -1.0708   -0.1633    1.6893 H   0  0
   -0.5921   -1.8302    2.0654 H   0  0
   -2.0118   -1.5427    1.0434 H   0  0
    1.4790   -2.0678    1.1385 H   0  0
    1.7356   -1.9802   -0.6155 H   0  0
    3.1653   -0.2740    0.5738 H   0  0
    1.9362    0.5172   -0.4445 H   0  0
    1.3266   -0.7865   -1.9832 H   0  0
    2.0741    1.3909    1.6455 H   0  0
  1  3  2  0
  1  5  1  0
  2  4  1  0
  2  5  2  0
  3  6  1  0
  4  6  2  0
  5 12  1  0
  6 13  1  0
  7  8  1  0
  7  9  1  0
  7 11  2  0
  9 10  1  0
 10 16  1  0
 11 12  1  0
 13 14  1  0
 13 15  2  0
  1 17  1  0
  2 18  1  0
  3 19  1  0
  4 20  1  0
  8 21  1  0
  8 22  1  0
  8 23  1  0
  9 24  1  0
  9 25  1  0
 10 26  1  0
 10 27  1  0
 12 28  1  0
 16 29  1  0
M  CHG  2  13   1  14  -1
M  END
> <Name>
BR020192

$$$$
BR020193
  SciTegic05062102053D

 26 27  0  0  0  0            999 V2000
    0.8269   -2.2507    4.4745 C   0  0
    2.7622   -3.0984    3.3028 C   0  0
    1.3644   -2.6938    5.6829 C   0  0
    3.2998   -3.5415    4.5112 C   0  0
    1.5258   -2.4531    3.2844 C   0  0
    2.6008   -3.3392    5.7013 C   0  0
    0.9687   -1.5235    0.0280 C   0  0
   -0.3466   -0.9848    0.4904 C   0  0
   -0.2803   -1.3389    1.9656 C   0  0
    1.3920   -1.4007   -1.3969 C   0  0
    1.6958   -2.0945    0.9342 N   0  0
    0.9975   -2.0195    2.0983 N   0  0
    3.1510   -3.7862    6.9316 N   0  3
    2.5086   -3.5908    7.9917 O   0  5
    4.2644   -4.3647    6.9251 O   0  0
   -0.1380   -1.7500    4.4715 H   0  0
    3.3149   -3.2610    2.3809 H   0  0
    0.8095   -2.5295    6.6034 H   0  0
    4.2653   -4.0413    4.5112 H   0  0
   -0.4036    0.0933    0.3206 H   0  0
   -1.1686   -1.4894   -0.0238 H   0  0
   -0.3150   -0.4364    2.5860 H   0  0
   -1.1104   -1.9926    2.2546 H   0  0
    1.9399   -0.4692   -1.5425 H   0  0
    0.5161   -1.4063   -2.0469 H   0  0
    2.0341   -2.2400   -1.6673 H   0  0
  1  3  1  0
  1  5  2  0
  2  4  2  0
  2  5  1  0
  3  6  2  0
  4  6  1  0
  5 12  1  0
  6 13  1  0
  7  8  1  0
  7 10  1  0
  7 11  2  0
  8  9  1  0
  9 12  1  0
 11 12  1  0
 13 14  1  0
 13 15  2  0
  1 16  1  0
  2 17  1  0
  3 18  1  0
  4 19  1  0
  8 20  1  0
  8 21  1  0
  9 22  1  0
  9 23  1  0
 10 24  1  0
 10 25  1  0
 10 26  1  0
M  CHG  2  13   1  14  -1
M  END
> <Name>
BR020193

$$$$
BR020194
  SciTegic05062102053D

 35 34  0  0  0  0            999 V2000
   -1.1082    0.0712    2.1282 C   0  0
   -1.4091   -1.3242    2.6109 C   0  0
    3.1490    3.1747    1.4307 C   0  0
    3.2779    2.4070   -0.9574 C   0  0
    3.2677    4.8617   -0.4260 C   0  0
    0.1840    4.8339    1.0493 C   0  0
    0.3250    3.9788   -1.8708 C   0  0
   -1.5828    0.4091    0.7239 C   0  0
   -1.2308    1.8287    0.3030 C   0  0
    2.6996    3.4855   -0.0142 C   0  0
   -0.5135    0.8743    2.8453 O   0  0
    0.1772    2.0127    0.3089 O   0  0
    0.8217    3.5014   -0.1204 Si  0  0
   -0.5844   -1.9919    2.3469 H   0  0
   -1.5252   -1.3190    3.6974 H   0  0
   -2.3233   -1.6871    2.1348 H   0  0
    2.7622    3.9152    2.1408 H   0  0
    2.7871    2.1908    1.7513 H   0  0
    4.2420    3.1693    1.5201 H   0  0
    2.9857    2.5843   -1.9993 H   0  0
    2.9311    1.4038   -0.6823 H   0  0
    4.3735    2.3986   -0.9190 H   0  0
    2.9749    5.1284   -1.4485 H   0  0
    2.9014    5.6526    0.2387 H   0  0
    4.3631    4.8747   -0.3809 H   0  0
    0.4455    4.6072    2.0874 H   0  0
    0.6102    5.8117    0.8049 H   0  0
   -0.9052    4.9221    0.9923 H   0  0
    0.6710    3.2365   -2.5966 H   0  0
   -0.7624    4.0557   -1.9664 H   0  0
    0.7529    4.9453   -2.1538 H   0  0
   -2.6710    0.2866    0.7078 H   0  0
   -1.1285   -0.3138    0.0378 H   0  0
   -1.5913    2.0259   -0.7115 H   0  0
   -1.6758    2.5713    0.9724 H   0  0
  1  2  1  0
  1  8  1  0
  1 11  2  0
  3 10  1  0
  4 10  1  0
  5 10  1  0
  6 13  1  0
  7 13  1  0
  8  9  1  0
  9 12  1  0
 10 13  1  0
 12 13  1  0
  2 14  1  0
  2 15  1  0
  2 16  1  0
  3 17  1  0
  3 18  1  0
  3 19  1  0
  4 20  1  0
  4 21  1  0
  4 22  1  0
  5 23  1  0
  5 24  1  0
  5 25  1  0
  6 26  1  0
  6 27  1  0
  6 28  1  0
  7 29  1  0
  7 30  1  0
  7 31  1  0
  8 32  1  0
  8 33  1  0
  9 34  1  0
  9 35  1  0
M  END
> <Name>
BR020194

$$$$
BR020195
  SciTegic05062102053D

 31 32  0  0  1  0            999 V2000
    4.3609   -0.9601   -2.5775 C   0  0
    3.4532   -2.0038   -2.3979 C   0  0
    4.1174    0.2839   -1.9952 C   0  0
    2.3019   -1.8036   -1.6363 C   0  0
    2.9661    0.4841   -1.2336 C   0  0
    2.0584   -0.5596   -1.0540 C   0  0
   -0.4400    0.7647    0.8769 C   0  0
   -1.2661   -0.4221    0.4894 C   0  0
   -0.3317   -1.0613   -0.5289 C   0  0  2  0  0  0
   -0.9965    1.8401    1.7474 C   0  0
   -2.3975   -1.4248   -3.5491 C   0  0
   -1.8935   -1.7266   -2.1539 C   0  0
    0.7816    0.7639    0.4467 N   0  0
    0.9267   -0.3625   -0.3050 N   0  0
   -0.8456   -0.8226   -1.8349 O   0  0
    5.2572   -1.1160   -3.1708 H   0  0
    3.6428   -2.9721   -2.8513 H   0  0
    4.8244    1.0966   -2.1352 H   0  0
    1.6008   -2.6234   -1.5025 H   0  0
    2.7870    1.4578   -0.7845 H   0  0
   -1.3990   -1.0501    1.3754 H   0  0
   -2.2336   -0.1188    0.0828 H   0  0
   -0.2443   -2.1420   -0.3738 H   0  0
   -0.8044    1.6065    2.7952 H   0  0
   -2.0727    1.9255    1.5913 H   0  0
   -0.5302    2.7953    1.5022 H   0  0
   -2.7858   -0.4044   -3.6115 H   0  0
   -1.5942   -1.5429   -4.2837 H   0  0
   -3.1923   -2.1231   -3.8317 H   0  0
   -1.5066   -2.7485   -2.0984 H   0  0
   -2.6972   -1.6073   -1.4212 H   0  0
  1  2  2  0
  1  3  1  0
  2  4  1  0
  3  5  2  0
  4  6  2  0
  5  6  1  0
  6 14  1  0
  7  8  1  0
  7 10  1  0
  7 13  2  0
  8  9  1  0
  9 14  1  0
  9 15  1  0
 11 12  1  0
 12 15  1  0
 13 14  1  0
  1 16  1  0
  2 17  1  0
  3 18  1  0
  4 19  1  0
  5 20  1  0
  8 21  1  0
  8 22  1  0
  9 23  1  0
 10 24  1  0
 10 25  1  0
 10 26  1  0
 11 27  1  0
 11 28  1  0
 11 29  1  0
 12 30  1  0
 12 31  1  0
M  END
> <Name>
BR020195

$$$$
BR020196
  SciTegic05062102053D

 23 23  0  0  0  0            999 V2000
    1.5608   -4.3164    6.0235 C   0  0
    1.3139   -3.1281    6.7109 C   0  0
    1.3241   -4.3902    4.6508 C   0  0
    0.8301   -2.0136    6.0256 C   0  0
    0.8403   -3.2758    3.9656 C   0  0
    0.5933   -2.0874    4.6530 C   0  0
    0.0111    0.0724    1.9590 C   0  0
   -0.2038    0.2109    0.4710 C   0  0
    0.4181    1.3155    2.7107 C   0  0
   -0.1266   -1.0253    2.6386 N   0  0
    0.1063   -0.9654    3.9626 N   0  0
    1.9374   -5.1842    6.5573 H   0  0
    1.4981   -3.0708    7.7794 H   0  0
    1.5165   -5.3157    4.1157 H   0  0
    0.6408   -1.0924    6.5705 H   0  0
    0.6598   -3.3450    2.8958 H   0  0
    0.7295    0.0213   -0.0666 H   0  0
   -0.9503   -0.5140    0.1353 H   0  0
   -0.5380    1.2255    0.2380 H   0  0
   -0.4609    1.8595    3.0672 H   0  0
    1.0355    1.0330    3.5677 H   0  0
    0.9966    1.9650    2.0481 H   0  0
   -0.0606   -0.1210    4.4960 H   0  0
  1  2  2  0
  1  3  1  0
  2  4  1  0
  3  5  2  0
  4  6  2  0
  5  6  1  0
  6 11  1  0
  7  8  1  0
  7  9  1  0
  7 10  2  0
 10 11  1  0
  1 12  1  0
  2 13  1  0
  3 14  1  0
  4 15  1  0
  5 16  1  0
  8 17  1  0
  8 18  1  0
  8 19  1  0
  9 20  1  0
  9 21  1  0
  9 22  1  0
 11 23  1  0
M  END
> <Name>
BR020196

$$$$
BR020197
  SciTegic05062102053D

 19 20  0  0  0  0            999 V2000
   -0.7036    1.3640    1.5041 C   0  0
   -0.7671    0.1975    0.7446 C   0  0
   -1.6773    1.6439    2.4698 C   0  0
   -1.8022   -0.7245    0.9247 C   0  0
   -3.8586    0.6897    3.5356 C   0  0
   -2.7304    0.7292    2.6692 C   0  0
   -2.7685   -0.4315    1.8936 C   0  0
   -4.5471   -0.4724    3.2738 C   0  0
   -5.7810   -1.0159    3.8711 C   0  0
   -3.8818   -1.1421    2.2822 N   0  0
    0.1106    2.0659    1.3452 H   0  0
    0.0001    0.0003   -0.0003 H   0  0
   -1.6156    2.5566    3.0555 H   0  0
   -1.8510   -1.6320    0.3325 H   0  0
   -4.1348    1.4331    4.2713 H   0  0
   -6.6742   -0.6716    3.3235 H   0  0
   -5.7923   -2.1198    3.8681 H   0  0
   -5.8992   -0.7141    4.9265 H   0  0
   -4.1641   -2.0296    1.8894 H   0  0
  1  2  2  0
  1  3  1  0
  2  4  1  0
  3  6  2  0
  4  7  2  0
  5  6  1  0
  5  8  2  0
  6  7  1  0
  7 10  1  0
  8  9  1  0
  8 10  1  0
  1 11  1  0
  2 12  1  0
  3 13  1  0
  4 14  1  0
  5 15  1  0
  9 16  1  0
  9 17  1  0
  9 18  1  0
 10 19  1  0
M  END
> <Name>
BR020197

$$$$
BR020198
  SciTegic05062102053D

 21 22  0  0  0  0            999 V2000
   -1.8022   -0.7245    0.9247 C   0  0
   -0.7671    0.1975    0.7446 C   0  0
   -1.6773    1.6439    2.4698 C   0  0
   -3.8586    0.6897    3.5356 C   0  0
   -2.7304    0.7292    2.6692 C   0  0
   -2.7685   -0.4315    1.8936 C   0  0
   -0.7036    1.3640    1.5041 C   0  0
   -4.5471   -0.4724    3.2738 C   0  0
   -5.7806   -1.0164    3.8712 C   0  0
   -3.8818   -1.1421    2.2822 N   0  0
    0.3613    2.2815    1.2975 N   0  3
    1.2282    2.0201    0.4293 O   0  5
    0.4044    3.3273    1.9888 O   0  0
   -1.8508   -1.6321    0.3326 H   0  0
   -0.0062   -0.0127   -0.0045 H   0  0
   -1.6284    2.5543    3.0621 H   0  0
   -4.1344    1.4335    4.2710 H   0  0
   -6.6741   -0.6722    3.3241 H   0  0
   -5.7917   -2.1203    3.8679 H   0  0
   -5.8986   -0.7151    4.9268 H   0  0
   -4.1643   -2.0296    1.8894 H   0  0
  1  2  1  0
  1  6  2  0
  2  7  2  0
  3  5  2  0
  3  7  1  0
  4  5  1  0
  4  8  2  0
  5  6  1  0
  6 10  1  0
  7 11  1  0
  8  9  1  0
  8 10  1  0
 11 12  1  0
 11 13  2  0
  1 14  1  0
  2 15  1  0
  3 16  1  0
  4 17  1  0
  9 18  1  0
  9 19  1  0
  9 20  1  0
 10 21  1  0
M  CHG  2  11   1  12  -1
M  END
> <Name>
BR020198

$$$$
BR020199
  SciTegic05062102053D

 23 24  0  0  0  0            999 V2000
   -1.8022   -0.7245    0.9247 C   0  0
   -0.7671    0.1975    0.7446 C   0  0
   -1.6773    1.6439    2.4698 C   0  0
   -2.7304    0.7292    2.6692 C   0  0
   -3.8586    0.6897    3.5356 C   0  0
   -2.7685   -0.4315    1.8936 C   0  0
   -0.7036    1.3640    1.5041 C   0  0
   -4.5471   -0.4724    3.2738 C   0  0
   -4.2470    1.6624    4.5185 C   0  0
   -5.7819   -1.0247    3.8648 C   0  0
   -3.8818   -1.1421    2.2822 N   0  0
    0.3625    2.2807    1.2996 N   0  3
    1.2307    2.0185    0.4330 O   0  5
   -3.6136    2.7092    4.7439 O   0  0
    0.4052    3.3263    1.9911 O   0  0
   -1.8512   -1.6319    0.3323 H   0  0
   -0.0062   -0.0126   -0.0045 H   0  0
   -1.6261    2.5544    3.0618 H   0  0
   -5.1733    1.4687    5.1178 H   0  0
   -6.6734   -0.6821    3.3143 H   0  0
   -5.7866   -2.1279    3.8572 H   0  0
   -5.9045   -0.7267    4.9202 H   0  0
   -4.1633   -2.0304    1.8905 H   0  0
  1  2  1  0
  1  6  2  0
  2  7  2  0
  3  4  2  0
  3  7  1  0
  4  5  1  0
  4  6  1  0
  5  8  2  0
  5  9  1  0
  6 11  1  0
  7 12  1  0
  8 10  1  0
  8 11  1  0
  9 14  2  0
 12 13  1  0
 12 15  2  0
  1 16  1  0
  2 17  1  0
  3 18  1  0
  9 19  1  0
 10 20  1  0
 10 21  1  0
 10 22  1  0
 11 23  1  0
M  CHG  2  12   1  13  -1
M  END
> <Name>
BR020199

$$$$
BR020200
  SciTegic05062102053D

 25 26  0  0  0  0            999 V2000
   -1.8022   -0.7245    0.9247 C   0  0
   -0.7671    0.1975    0.7446 C   0  0
   -1.6773    1.6439    2.4698 C   0  0
   -2.7304    0.7292    2.6692 C   0  0
   -3.8586    0.6897    3.5356 C   0  0
   -2.7685   -0.4315    1.8936 C   0  0
   -0.7036    1.3640    1.5041 C   0  0
   -4.5471   -0.4724    3.2738 C   0  0
   -5.7808   -1.0222    3.8683 C   0  0
   -4.2277    1.7122    4.5367 C   0  0
   -3.8818   -1.1421    2.2822 N   0  0
    0.3624    2.2802    1.2977 N   0  3
    1.2295    2.0174    0.4301 O   0  5
    0.4064    3.3262    1.9885 O   0  0
   -3.3659    1.6162    5.6699 O   0  0
   -1.8514   -1.6318    0.3322 H   0  0
   -0.0059   -0.0137   -0.0041 H   0  0
   -1.6252    2.5542    3.0617 H   0  0
   -6.6736   -0.6788    3.3202 H   0  0
   -5.7876   -2.1256    3.8616 H   0  0
   -5.9005   -0.7235    4.9240 H   0  0
   -4.1473    2.7360    4.1325 H   0  0
   -5.2677    1.5891    4.8848 H   0  0
   -4.1634   -2.0298    1.8894 H   0  0
   -3.6504    2.3044    6.2903 H   0  0
  1  2  1  0
  1  6  2  0
  2  7  2  0
  3  4  2  0
  3  7  1  0
  4  5  1  0
  4  6  1  0
  5  8  2  0
  5 10  1  0
  6 11  1  0
  7 12  1  0
  8  9  1  0
  8 11  1  0
 10 15  1  0
 12 13  1  0
 12 14  2  0
  1 16  1  0
  2 17  1  0
  3 18  1  0
  9 19  1  0
  9 20  1  0
  9 21  1  0
 10 22  1  0
 10 23  1  0
 11 24  1  0
 15 25  1  0
M  CHG  2  12   1  13  -1
M  END
> <Name>
BR020200

$$$$
BR020201
  SciTegic05062102053D

 39 40  0  0  0  0            999 V2000
   -1.8022   -0.7245    0.9247 C   0  0
   -0.7671    0.1975    0.7446 C   0  0
   -1.6773    1.6439    2.4698 C   0  0
   -2.7304    0.7292    2.6692 C   0  0
   -3.8586    0.6897    3.5356 C   0  0
   -2.7685   -0.4315    1.8936 C   0  0
   -0.7036    1.3640    1.5041 C   0  0
   -4.5471   -0.4724    3.2738 C   0  0
   -5.7808   -1.0222    3.8683 C   0  0
   -5.9703    4.5240    2.6505 C   0  0
   -5.3120    3.9961    6.0741 C   0  0
   -4.2277    1.7122    4.5367 C   0  0
   -5.8181    3.1544    3.2753 C   0  0
   -4.2949    4.1643    4.9666 C   0  0
   -3.8818   -1.1421    2.2822 N   0  0
    0.3624    2.2802    1.2977 N   0  3
   -4.4781    3.0657    3.9545 N   0  3
    1.2295    2.0174    0.4301 O   0  5
    0.4064    3.3262    1.9885 O   0  0
   -1.8514   -1.6318    0.3322 H   0  0
   -0.0059   -0.0137   -0.0041 H   0  0
   -1.6252    2.5542    3.0617 H   0  0
   -6.6736   -0.6788    3.3202 H   0  0
   -5.7876   -2.1256    3.8616 H   0  0
   -5.9005   -0.7235    4.9240 H   0  0
   -5.9345    5.2980    3.4232 H   0  0
   -5.1668    4.7236    1.9339 H   0  0
   -6.9263    4.6151    2.1242 H   0  0
   -6.3263    4.0773    5.6713 H   0  0
   -5.2160    3.0167    6.5543 H   0  0
   -5.1906    4.7659    6.8434 H   0  0
   -5.1491    1.4486    5.0839 H   0  0
   -3.4406    1.8562    5.2969 H   0  0
   -5.8505    2.3610    2.5236 H   0  0
   -6.5785    2.9720    4.0397 H   0  0
   -3.2710    4.0873    5.3426 H   0  0
   -4.4255    5.1128    4.4384 H   0  0
   -4.1634   -2.0298    1.8894 H   0  0
   -3.7679    3.2198    3.2229 H   0  0
  1  2  1  0
  1  6  2  0
  2  7  2  0
  3  4  2  0
  3  7  1  0
  4  5  1  0
  4  6  1  0
  5  8  2  0
  5 12  1  0
  6 15  1  0
  7 16  1  0
  8  9  1  0
  8 15  1  0
 10 13  1  0
 11 14  1  0
 12 17  1  0
 13 17  1  0
 14 17  1  0
 16 18  1  0
 16 19  2  0
  1 20  1  0
  2 21  1  0
  3 22  1  0
  9 23  1  0
  9 24  1  0
  9 25  1  0
 10 26  1  0
 10 27  1  0
 10 28  1  0
 11 29  1  0
 11 30  1  0
 11 31  1  0
 12 32  1  0
 12 33  1  0
 13 34  1  0
 13 35  1  0
 14 36  1  0
 14 37  1  0
 15 38  1  0
 17 39  1  0
M  CHG  3  16   1  17   1  18  -1
M  END
> <Name>
BR020201

$$$$
BR020202
  SciTegic05062102053D

 43 46  0  0  0  0            999 V2000
   -3.0111   -2.6467    2.4422 C   0  0
   -1.3233    5.8013    4.8863 C   0  0
   -3.0477   -3.4245    3.6030 C   0  0
   -2.0913    6.6375    4.0709 C   0  0
   -3.6555   -1.4950    4.9463 C   0  0
   -3.7104    4.8694    3.6839 C   0  0
   -3.6248   -0.6908    3.7897 C   0  0
   -2.9526    4.0080    4.5020 C   0  0
   -3.8586    0.6897    3.5356 C   0  0
   -3.0968    2.6550    4.9184 C   0  0
   -3.3040   -1.2840    2.5668 C   0  0
   -1.7790    4.4929    5.0831 C   0  0
   -3.3646   -2.8597    4.8368 C   0  0
   -3.2668    6.1809    3.4780 C   0  0
   -3.6782    0.9039    2.1885 C   0  0
   -2.0276    2.3501    5.7289 C   0  0
   -3.7892    2.1333    1.3798 C   0  0
   -1.6693    1.1028    6.4314 C   0  0
   -4.2277    1.7122    4.5367 C   0  0
   -3.3442   -0.2924    1.6127 N   0  0
   -1.2385    3.4650    5.8225 N   0  0
   -3.3947   -3.6780    5.9978 N   0  3
   -4.0255    7.0564    2.6557 N   0  3
   -3.1334   -4.8999    5.8864 O   0  5
   -3.6181    8.2298    2.4800 O   0  5
   -3.6813   -3.1556    7.1016 O   0  0
   -5.0813    6.6314    2.1283 O   0  0
   -2.7632   -3.0872    1.4824 H   0  0
   -0.4078    6.1573    5.3466 H   0  0
   -2.8234   -4.4867    3.5256 H   0  0
   -1.7531    7.6589    3.9069 H   0  0
   -3.9032   -1.0567    5.9098 H   0  0
   -4.6281    4.5158    3.2208 H   0  0
   -2.8237    2.6628    1.3267 H   0  0
   -4.1121    1.9213    0.3461 H   0  0
   -4.5338    2.8352    1.7933 H   0  0
   -1.0379    0.4575    5.7988 H   0  0
   -1.1172    1.2982    7.3667 H   0  0
   -2.5606    0.5196    6.7203 H   0  0
   -5.0851    2.3230    4.1877 H   0  0
   -4.6155    1.2434    5.4640 H   0  0
   -3.1540   -0.4321    0.6298 H   0  0
   -0.3823    3.5288    6.3560 H   0  0
  1  3  1  0
  1 11  2  0
  2  4  2  0
  2 12  1  0
  3 13  2  0
  4 14  1  0
  5  7  2  0
  5 13  1  0
  6  8  1  0
  6 14  2  0
  7  9  1  0
  7 11  1  0
  8 10  1  0
  8 12  2  0
  9 15  2  0
  9 19  1  0
 10 16  2  0
 10 19  1  0
 11 20  1  0
 12 21  1  0
 13 22  1  0
 14 23  1  0
 15 17  1  0
 15 20  1  0
 16 18  1  0
 16 21  1  0
 22 24  1  0
 22 26  2  0
 23 25  1  0
 23 27  2  0
  1 28  1  0
  2 29  1  0
  3 30  1  0
  4 31  1  0
  5 32  1  0
  6 33  1  0
 17 34  1  0
 17 35  1  0
 17 36  1  0
 18 37  1  0
 18 38  1  0
 18 39  1  0
 19 40  1  0
 19 41  1  0
 20 42  1  0
 21 43  1  0
M  CHG  4  22   1  23   1  24  -1  25  -1
M  END
> <Name>
BR020202

$$$$
BR020203
  SciTegic05062102053D

 25 26  0  0  0  0            999 V2000
   -4.8343    2.8927    3.8917 C   0  0
   -1.8022   -0.7245    0.9247 C   0  0
   -0.7671    0.1975    0.7446 C   0  0
   -1.6773    1.6439    2.4698 C   0  0
   -2.7304    0.7292    2.6692 C   0  0
   -3.8586    0.6897    3.5356 C   0  0
   -2.7685   -0.4315    1.8936 C   0  0
   -0.7036    1.3640    1.5041 C   0  0
   -4.5471   -0.4724    3.2738 C   0  0
   -5.7808   -1.0222    3.8683 C   0  0
   -4.2277    1.7122    4.5367 C   0  0
   -5.3093    3.8175    3.3763 N   0  0
   -3.8818   -1.1421    2.2822 N   0  0
    0.3624    2.2802    1.2977 N   0  3
    1.2295    2.0174    0.4301 O   0  5
    0.4064    3.3262    1.9885 O   0  0
   -1.8514   -1.6318    0.3322 H   0  0
   -0.0059   -0.0137   -0.0041 H   0  0
   -1.6252    2.5542    3.0617 H   0  0
   -6.6736   -0.6788    3.3202 H   0  0
   -5.7876   -2.1256    3.8616 H   0  0
   -5.9005   -0.7235    4.9240 H   0  0
   -3.3486    2.0350    5.1202 H   0  0
   -4.9354    1.3066    5.2797 H   0  0
   -4.1634   -2.0298    1.8894 H   0  0
  1 11  1  0
  1 12  3  0
  2  3  1  0
  2  7  2  0
  3  8  2  0
  4  5  2  0
  4  8  1  0
  5  6  1  0
  5  7  1  0
  6  9  2  0
  6 11  1  0
  7 13  1  0
  8 14  1  0
  9 10  1  0
  9 13  1  0
 14 15  1  0
 14 16  2  0
  2 17  1  0
  3 18  1  0
  4 19  1  0
 10 20  1  0
 10 21  1  0
 10 22  1  0
 11 23  1  0
 11 24  1  0
 13 25  1  0
M  CHG  2  14   1  15  -1
M  END
> <Name>
BR020203

$$$$
BR020204
  SciTegic05062102053D

 20 20  0  0  0  0            999 V2000
    0.2265   -0.4197    0.9733 C   0  0
    1.6520   -0.6227    2.8997 C   0  0
   -0.6317   -1.3224    1.5803 C   0  0
    0.7299   -1.5161    3.4206 C   0  0
    1.3879   -0.0684    1.6522 C   0  0
    2.3223    0.8750    1.0600 C   0  0
    5.3612    2.5977    1.4643 C   0  0
   -0.4092   -1.8816    2.7908 N   0  0
    3.4244    1.2397    1.6536 N   0  0
    5.7401    2.1282    2.6932 N   0  0
    4.1751    2.1273    0.9581 N   0  0
    6.2986    3.6941    0.6198 S   0  0
   -0.0108   -0.0052   -0.0008 H   0  0
    2.5483   -0.3695    3.4560 H   0  0
   -1.5513   -1.6283    1.0929 H   0  0
    0.8894   -1.9765    4.3899 H   0  0
    2.0645    1.2912    0.0580 H   0  0
    5.1689    1.4642    3.2050 H   0  0
    6.6032    2.4309    3.1320 H   0  0
    3.8350    2.4349    0.0523 H   0  0
  1  3  1  0
  1  5  2  0
  2  4  2  0
  2  5  1  0
  3  8  2  0
  4  8  1  0
  5  6  1  0
  6  9  2  0
  7 10  1  0
  7 11  1  0
  7 12  2  0
  9 11  1  0
  1 13  1  0
  2 14  1  0
  3 15  1  0
  4 16  1  0
  6 17  1  0
 10 18  1  0
 10 19  1  0
 11 20  1  0
M  END
> <Name>
BR020204

$$$$
BR020205
  SciTegic05062102053D

 32 34  0  0  0  0            999 V2000
    1.8839   -1.0359   -0.1125 C   0  0
    2.1920   -2.2089    0.5767 C   0  0
    1.5338    0.1157    0.5924 C   0  0
    2.1499   -2.2302    1.9707 C   0  0
    1.4916    0.0943    1.9865 C   0  0
   -2.8048    3.1457    8.8706 C   0  0
   -2.6090    3.0588    6.4751 C   0  0
   -3.7858    4.1094    8.7015 C   0  0
   -3.5989    4.0263    6.4132 C   0  0
    2.5670   -1.9224    4.8652 C   0  0
    1.7997   -1.0786    2.6757 C   0  0
   -2.2101    2.6154    7.7311 C   0  0
    1.7561   -1.1004    4.1109 C   0  0
    1.0629   -0.5074    6.1054 C   0  0
   -1.1618    1.5875    7.8542 C   0  0
   -4.1997    4.5650    7.4979 N   0  0
    0.8927   -0.2886    4.8204 N   0  0
   -0.5858    1.0705    6.8180 N   0  0
    0.3697    0.1263    7.0884 N   0  0
    2.2453   -1.6759    6.5316 S   0  0
    1.9176   -1.0188   -1.1979 H   0  0
    2.4658   -3.1052    0.0281 H   0  0
    1.2951    1.0291    0.0557 H   0  0
    2.3927   -3.1524    2.4936 H   0  0
    1.2168    1.0005    2.5214 H   0  0
   -2.5183    2.8214    9.8655 H   0  0
   -2.1659    2.6654    5.5663 H   0  0
   -4.2812    4.5538    9.5582 H   0  0
   -3.9452    4.4059    5.4577 H   0  0
    3.3134   -2.6329    4.5374 H   0  0
   -0.8913    1.2788    8.8816 H   0  0
    0.5528   -0.0930    8.0838 H   0  0
  1  2  2  0
  1  3  1  0
  2  4  1  0
  3  5  2  0
  4 11  2  0
  5 11  1  0
  6  8  1  0
  6 12  2  0
  7  9  2  0
  7 12  1  0
  8 16  2  0
  9 16  1  0
 10 13  2  0
 10 20  1  0
 11 13  1  0
 12 15  1  0
 13 17  1  0
 14 17  2  0
 14 19  1  0
 14 20  1  0
 15 18  2  0
 18 19  1  0
  1 21  1  0
  2 22  1  0
  3 23  1  0
  4 24  1  0
  5 25  1  0
  6 26  1  0
  7 27  1  0
  8 28  1  0
  9 29  1  0
 10 30  1  0
 15 31  1  0
 19 32  1  0
M  END
> <Name>
BR020205

$$$$
BR020206
  SciTegic05062102053D

 32 33  0  0  1  0            999 V2000
    0.4642   -1.5161    0.8978 C   0  0
   -0.4912   -1.3788   -0.0388 C   0  0
   -1.0706   -2.5537   -0.6814 C   0  0
   -3.3790   -3.7442   -3.0348 C   0  0
    1.0752   -0.2889    1.5451 C   0  0
   -1.1405    0.8276    0.9715 C   0  0
   -0.9229    0.0202   -0.3618 C   0  0  1  0  0  0
    0.4175    0.9808    0.9587 C   0  0  2  0  0  0
    0.2921    1.0199   -0.6288 C   0  0
   -0.1116    2.3847   -1.2215 C   0  0
    1.4878    0.5045   -1.4408 C   0  0
   -1.9927   -2.4704   -1.5881 N   0  0
   -3.9029   -2.5614   -3.4821 N   0  0
   -2.4066   -3.6678   -2.0689 N   0  0
   -3.8999   -5.2143   -3.6364 S   0  0
    0.8325   -2.4912    1.2000 H   0  0
   -0.6657   -3.5273   -0.3389 H   0  0
    0.9133   -0.3290    2.6279 H   0  0
    2.1555   -0.2731    1.3668 H   0  0
   -1.7130    1.7556    0.8760 H   0  0
   -1.5716    0.2814    1.8184 H   0  0
   -1.7488    0.0705   -1.0776 H   0  0
    0.7979    1.8968    1.4220 H   0  0
    0.7786    2.9864   -1.3646 H   0  0
   -0.7864    2.8836   -0.5356 H   0  0
   -0.6053    2.2258   -2.1734 H   0  0
    2.2274    1.2943   -1.5369 H   0  0
    1.1510    0.2015   -2.4281 H   0  0
    1.9308   -0.3469   -0.9318 H   0  0
   -3.5862   -1.6700   -3.1158 H   0  0
   -4.6246   -2.5387   -4.1944 H   0  0
   -1.9762   -4.5073   -1.6935 H   0  0
  1  2  2  0
  1  5  1  0
  2  3  1  0
  2  7  1  0
  3 12  2  0
  4 13  1  0
  4 14  1  0
  4 15  2  0
  5  8  1  0
  6  7  1  0
  6  8  1  0
  7  9  1  0
  8  9  1  0
  9 10  1  0
  9 11  1  0
 12 14  1  0
  1 16  1  0
  3 17  1  0
  5 18  1  0
  5 19  1  0
  6 20  1  0
  6 21  1  0
  7 22  1  0
  8 23  1  0
 10 24  1  0
 10 25  1  0
 10 26  1  0
 11 27  1  0
 11 28  1  0
 11 29  1  0
 13 30  1  0
 13 31  1  0
 14 32  1  0
M  END
> <Name>
BR020206

$$$$
BR020207
  SciTegic05062102053D

 44 47  0  0  1  0            999 V2000
    6.1341    6.3681    4.5174 C   0  0
    5.1491    7.2219    5.0138 C   0  0
    5.8571    5.5426    3.4277 C   0  0
    3.8871    7.2502    4.4205 C   0  0
    4.5951    5.5709    2.8344 C   0  0
    1.5252    7.5859    2.7038 C   0  0
    3.6100    6.4246    3.3307 C   0  0
    2.3120    6.4533    2.7204 C   0  0
    0.5885    5.6416    1.6339 C   0  0
   -1.4327    0.6559   -0.9149 C   0  0
   -0.4987    1.3547   -0.2451 C   0  0
   -0.7239    2.7569    0.0895 C   0  0
   -1.1988   -0.8060   -1.2412 C   0  0
    1.2707   -0.1931   -1.1302 C   0  0
    0.7611    0.6253    0.1137 C   0  0  2  0  0  0
    0.1844   -1.2361   -0.7022 C   0  0  1  0  0  0
    0.5069   -0.7958    0.7942 C   0  0
    1.6876   -1.4852    1.4911 C   0  0
   -0.6904   -0.8438    1.7644 C   0  0
    1.7764    5.3373    2.1078 N   0  0
    0.1455    3.4700    0.7338 N   0  0
   -0.2434    4.7422    0.9488 N   0  0
    0.0535    7.2521    1.8889 S   0  0
    7.1173    6.3467    4.9786 H   0  0
    5.3650    7.8656    5.8614 H   0  0
    6.6247    4.8789    3.0406 H   0  0
    3.1297    7.9212    4.8190 H   0  0
    4.3950    4.9211    1.9855 H   0  0
    1.7303    8.5662    3.1118 H   0  0
   -2.3719    1.1048   -1.2214 H   0  0
   -1.6952    3.1734   -0.2460 H   0  0
   -1.9878   -1.4179   -0.7917 H   0  0
   -1.2389   -0.9484   -2.3266 H   0  0
    1.1432    0.2700   -2.1154 H   0  0
    2.3088   -0.5362   -1.0796 H   0  0
    1.5126    1.2579    0.5952 H   0  0
    0.4191   -2.2772   -0.9462 H   0  0
    1.3601   -2.4359    1.9021 H   0  0
    2.0548   -0.8510    2.2930 H   0  0
    2.4829   -1.6563    0.7711 H   0  0
   -0.7776   -1.8449    2.1706 H   0  0
   -1.5944   -0.5857    1.2249 H   0  0
   -0.5252   -0.1341    2.5668 H   0  0
   -1.1437    5.0753    0.6222 H   0  0
  1  2  2  0
  1  3  1  0
  2  4  1  0
  3  5  2  0
  4  7  2  0
  5  7  1  0
  6  8  2  0
  6 23  1  0
  7  8  1  0
  8 20  1  0
  9 20  2  0
  9 22  1  0
  9 23  1  0
 10 11  2  0
 10 13  1  0
 11 12  1  0
 11 15  1  0
 12 21  2  0
 13 16  1  0
 14 15  1  0
 14 16  1  0
 15 17  1  0
 16 17  1  0
 17 18  1  0
 17 19  1  0
 21 22  1  0
  1 24  1  0
  2 25  1  0
  3 26  1  0
  4 27  1  0
  5 28  1  0
  6 29  1  0
 10 30  1  0
 12 31  1  0
 13 32  1  0
 13 33  1  0
 14 34  1  0
 14 35  1  0
 15 36  1  0
 16 37  1  0
 18 38  1  0
 18 39  1  0
 18 40  1  0
 19 41  1  0
 19 42  1  0
 19 43  1  0
 22 44  1  0
M  END
> <Name>
BR020207

$$$$
BR020208
  SciTegic05062102053D

 21 21  0  0  0  0            999 V2000
    1.8851   -1.0363   -0.1124 C   0  0
    0.8066   -0.4630    0.5610 C   0  0
    2.9210   -1.6309    0.6081 C   0  0
    0.7638   -0.4841    1.9551 C   0  0
    2.8783   -1.6520    2.0022 C   0  0
    1.7997   -1.0786    2.6757 C   0  0
    1.7551   -1.1006    4.1291 C   0  0
    3.3961   -2.1063    7.0718 C   0  0
    2.6938   -1.6433    4.8529 N   0  0
    4.5058   -2.7017    6.5348 N   0  0
    2.4882   -1.5746    6.1901 N   0  0
    3.1570   -2.0312    8.7245 S   0  0
    1.9184   -1.0198   -1.1978 H   0  0
    0.0002    0.0000   -0.0002 H   0  0
    3.7607   -2.0775    0.0838 H   0  0
   -0.0814   -0.0344    2.4697 H   0  0
    3.6911   -2.1179    2.5534 H   0  0
    0.8726   -0.6295    4.6215 H   0  0
    4.6482   -2.7480    5.5314 H   0  0
    5.2199   -3.1176    7.1232 H   0  0
    1.6434   -1.1191    6.5212 H   0  0
  1  2  2  0
  1  3  1  0
  2  4  1  0
  3  5  2  0
  4  6  2  0
  5  6  1  0
  6  7  1  0
  7  9  2  0
  8 10  1  0
  8 11  1  0
  8 12  2  0
  9 11  1  0
  1 13  1  0
  2 14  1  0
  3 15  1  0
  4 16  1  0
  5 17  1  0
  7 18  1  0
 10 19  1  0
 10 20  1  0
 11 21  1  0
M  END
> <Name>
BR020208

$$$$
BR020209
  SciTegic05062102053D

 33 35  0  0  0  0            999 V2000
    1.8839   -1.0359   -0.1125 C   0  0
   -4.1950    4.5619    7.4982 C   0  0
    2.1920   -2.2089    0.5767 C   0  0
    1.5338    0.1157    0.5924 C   0  0
   -3.7973    4.1188    8.7596 C   0  0
   -3.6003    4.0317    6.3533 C   0  0
    2.1499   -2.2302    1.9707 C   0  0
    1.4916    0.0943    1.9865 C   0  0
   -2.8049    3.1456    8.8761 C   0  0
   -2.6078    3.0585    6.4697 C   0  0
    2.5670   -1.9224    4.8652 C   0  0
    1.7997   -1.0786    2.6757 C   0  0
   -2.2101    2.6154    7.7311 C   0  0
    1.7561   -1.1004    4.1109 C   0  0
    1.0629   -0.5074    6.1054 C   0  0
   -1.1618    1.5875    7.8542 C   0  0
    0.8927   -0.2886    4.8204 N   0  0
   -0.5858    1.0705    6.8180 N   0  0
    0.3697    0.1263    7.0884 N   0  0
    2.2453   -1.6759    6.5316 S   0  0
    1.9176   -1.0188   -1.1979 H   0  0
   -4.9677    5.3196    7.4076 H   0  0
    2.4658   -3.1052    0.0281 H   0  0
    1.2951    1.0291    0.0557 H   0  0
   -4.2603    4.5318    9.6510 H   0  0
   -3.9101    4.3765    5.3711 H   0  0
    2.3927   -3.1524    2.4936 H   0  0
    1.2168    1.0005    2.5214 H   0  0
   -2.5026    2.8075    9.8639 H   0  0
   -2.1512    2.6526    5.5707 H   0  0
    3.3134   -2.6329    4.5374 H   0  0
   -0.8913    1.2788    8.8816 H   0  0
    0.5528   -0.0930    8.0838 H   0  0
  1  3  2  0
  1  4  1  0
  2  5  2  0
  2  6  1  0
  3  7  1  0
  4  8  2  0
  5  9  1  0
  6 10  2  0
  7 12  2  0
  8 12  1  0
  9 13  2  0
 10 13  1  0
 11 14  2  0
 11 20  1  0
 12 14  1  0
 13 16  1  0
 14 17  1  0
 15 17  2  0
 15 19  1  0
 15 20  1  0
 16 18  2  0
 18 19  1  0
  1 21  1  0
  2 22  1  0
  3 23  1  0
  4 24  1  0
  5 25  1  0
  6 26  1  0
  7 27  1  0
  8 28  1  0
  9 29  1  0
 10 30  1  0
 11 31  1  0
 16 32  1  0
 19 33  1  0
M  END
> <Name>
BR020209

$$$$
BR020210
  SciTegic05062102053D

 24 24  0  0  0  0            999 V2000
    1.8851   -1.0363   -0.1124 C   0  0
    2.8783   -1.6520    2.0022 C   0  0
    0.8066   -0.4630    0.5610 C   0  0
    1.7997   -1.0786    2.6757 C   0  0
    2.9210   -1.6309    0.6081 C   0  0
    0.7638   -0.4841    1.9551 C   0  0
    4.0464   -2.2285   -0.0930 C   0  0
    7.1097   -3.9221    0.2399 C   0  0
   -0.3892    0.1300    2.6748 C   0  0
    5.0413   -2.7956    0.5297 N   0  0
    7.1876   -4.0088    1.6040 N   0  0
    6.0036   -3.2979   -0.2808 N   0  0
    8.3067   -4.5461   -0.7460 S   0  0
    1.9089   -1.0145   -1.1989 H   0  0
    3.6797   -2.1125    2.5740 H   0  0
    0.0041   -0.0017   -0.0084 H   0  0
    1.7748   -1.0992    3.7621 H   0  0
    4.0361   -2.1866   -1.2071 H   0  0
   -1.1815   -0.6123    2.8301 H   0  0
   -0.0843    0.5235    3.6531 H   0  0
   -0.8079    0.9731    2.1098 H   0  0
    6.4610   -3.6278    2.2007 H   0  0
    7.9754   -4.4550    2.0615 H   0  0
    5.8832   -3.1990   -1.2841 H   0  0
  1  3  1  0
  1  5  2  0
  2  4  2  0
  2  5  1  0
  3  6  2  0
  4  6  1  0
  5  7  1  0
  6  9  1  0
  7 10  2  0
  8 11  1  0
  8 12  1  0
  8 13  2  0
 10 12  1  0
  1 14  1  0
  2 15  1  0
  3 16  1  0
  4 17  1  0
  7 18  1  0
  9 19  1  0
  9 20  1  0
  9 21  1  0
 11 22  1  0
 11 23  1  0
 12 24  1  0
M  END
> <Name>
BR020210

$$$$
BR020211
  SciTegic05062102053D

 36 38  0  0  0  0            999 V2000
    1.9893   -0.9311   -0.1057 C   0  0
    2.2490   -2.1268    0.5640 C   0  0
    1.6598    0.2156    0.6169 C   0  0
    2.1790   -2.1759    1.9562 C   0  0
    1.5898    0.1666    2.0091 C   0  0
   -2.7490    3.2026    8.8790 C   0  0
   -2.5065    3.1577    6.4756 C   0  0
   -3.7099    4.2070    8.7634 C   0  0
   -3.4675    4.1621    6.3599 C   0  0
    2.5483   -1.9409    4.8640 C   0  0
    1.8494   -1.0292    2.6788 C   0  0
   -2.1472    2.6780    7.7351 C   0  0
   -4.0692    4.6868    7.5038 C   0  0
    1.7771   -1.0794    4.1122 C   0  0
    1.0629   -0.5074    6.1054 C   0  0
   -1.1324    1.6166    7.8561 C   0  0
   -5.0976    5.7600    7.3806 C   0  0
    0.9244   -0.2569    4.8223 N   0  0
   -0.5519    1.1042    6.8202 N   0  0
    0.3697    0.1263    7.0884 N   0  0
    2.2015   -1.7195    6.5289 S   0  0
    2.0448   -0.8925   -1.1897 H   0  0
    2.5068   -3.0195    0.0017 H   0  0
    1.4589    1.1468    0.0953 H   0  0
    2.3841   -3.1156    2.4637 H   0  0
    1.3316    1.0693    2.5579 H   0  0
   -2.4761    2.8356    9.8650 H   0  0
   -2.0443    2.7565    5.5775 H   0  0
   -4.1737    4.6097    9.6598 H   0  0
   -3.7418    4.5297    5.3745 H   0  0
    3.2797   -2.6666    4.5353 H   0  0
   -0.8914    1.2787    8.8816 H   0  0
   -4.6232    6.7485    7.4106 H   0  0
   -5.6562    5.6704    6.4400 H   0  0
   -5.8331    5.7021    8.1936 H   0  0
    0.5268   -0.1190    8.0822 H   0  0
  1  2  2  0
  1  3  1  0
  2  4  1  0
  3  5  2  0
  4 11  2  0
  5 11  1  0
  6  8  1  0
  6 12  2  0
  7  9  2  0
  7 12  1  0
  8 13  2  0
  9 13  1  0
 10 14  2  0
 10 21  1  0
 11 14  1  0
 12 16  1  0
 13 17  1  0
 14 18  1  0
 15 18  2  0
 15 20  1  0
 15 21  1  0
 16 19  2  0
 19 20  1  0
  1 22  1  0
  2 23  1  0
  3 24  1  0
  4 25  1  0
  5 26  1  0
  6 27  1  0
  7 28  1  0
  8 29  1  0
  9 30  1  0
 10 31  1  0
 16 32  1  0
 17 33  1  0
 17 34  1  0
 17 35  1  0
 20 36  1  0
M  END
> <Name>
BR020211

$$$$
BR020212
  SciTegic05062102053D

 41 43  0  0  0  0            999 V2000
    1.9791   -0.9410   -0.1065 C   0  0
    2.2392   -2.1359    0.5643 C   0  0
    1.6510    0.2068    0.6150 C   0  0
    2.1711   -2.1832    1.9567 C   0  0
    1.5829    0.1596    2.0074 C   0  0
   -2.7447    3.2053    8.8800 C   0  0
   -2.5066    3.1591    6.4762 C   0  0
   -3.7052    4.2103    8.7655 C   0  0
   -3.4671    4.1641    6.3617 C   0  0
    2.5445   -1.9446    4.8636 C   0  0
    1.8429   -1.0354    2.6783 C   0  0
   -2.1454    2.6797    7.7353 C   0  0
   -4.0664    4.6897    7.5064 C   0  0
    1.7726   -1.0838    4.1118 C   0  0
    1.0614   -0.5089    6.1053 C   0  0
   -1.1308    1.6182    7.8562 C   0  0
   -5.6660    6.2587    8.5739 C   0  0
   -5.4096    6.2205    6.0877 C   0  0
    0.9212   -0.2600    4.8221 N   0  0
   -0.5519    1.1042    6.8202 N   0  0
    0.3697    0.1263    7.0884 N   0  0
   -5.0375    5.7059    7.3907 N   0  0
    2.2001   -1.7209    6.5288 S   0  0
    2.0331   -0.9037   -1.1906 H   0  0
    2.4960   -3.0294    0.0028 H   0  0
    1.4498    1.1374    0.0926 H   0  0
    2.3766   -3.1223    2.4652 H   0  0
    1.3257    1.0631    2.5554 H   0  0
   -2.4708    2.8391    9.8661 H   0  0
   -2.0460    2.7567    5.5776 H   0  0
   -4.1659    4.6129    9.6640 H   0  0
   -3.7412    4.5304    5.3756 H   0  0
    3.2751   -2.6710    4.5349 H   0  0
   -0.8886    1.2815    8.8819 H   0  0
   -6.3872    7.0297    8.2908 H   0  0
   -4.9126    6.7049    9.2287 H   0  0
   -6.1891    5.4732    9.1260 H   0  0
   -6.1710    6.9976    6.1941 H   0  0
   -5.8116    5.4169    5.4647 H   0  0
   -4.5371    6.6489    5.5872 H   0  0
    0.5280   -0.1178    8.0823 H   0  0
  1  2  2  0
  1  3  1  0
  2  4  1  0
  3  5  2  0
  4 11  2  0
  5 11  1  0
  6  8  1  0
  6 12  2  0
  7  9  2  0
  7 12  1  0
  8 13  2  0
  9 13  1  0
 10 14  2  0
 10 23  1  0
 11 14  1  0
 12 16  1  0
 13 22  1  0
 14 19  1  0
 15 19  2  0
 15 21  1  0
 15 23  1  0
 16 20  2  0
 17 22  1  0
 18 22  1  0
 20 21  1  0
  1 24  1  0
  2 25  1  0
  3 26  1  0
  4 27  1  0
  5 28  1  0
  6 29  1  0
  7 30  1  0
  8 31  1  0
  9 32  1  0
 10 33  1  0
 16 34  1  0
 17 35  1  0
 17 36  1  0
 17 37  1  0
 18 38  1  0
 18 39  1  0
 18 40  1  0
 21 41  1  0
M  END
> <Name>
BR020212

$$$$
BR020213
  SciTegic05062102053D

 24 24  0  0  0  0            999 V2000
    0.1162   -2.1147   -0.3540 C   0  0
    0.0880   -4.1502    2.4195 C   0  0
    0.1506   -0.6876   -0.8384 C   0  0
    0.4421   -3.1948   -1.3559 C   0  0
    1.4882   -0.4161   -1.5168 C   0  0
    1.7739   -2.8759   -2.0258 C   0  0
    1.7978   -1.4561   -2.5953 C   0  0
   -0.2112   -2.3823    0.8671 N   0  0
    0.3526   -3.1978    3.3664 N   0  0
   -0.1966   -3.7053    1.1524 N   0  0
    0.1105   -5.7803    2.7891 S   0  0
   -0.6743   -0.5481   -1.5460 H   0  0
    0.0008    0.0000    0.0001 H   0  0
    0.4872   -4.1732   -0.8680 H   0  0
   -0.3636   -3.2225   -2.0978 H   0  0
    1.4796    0.5855   -1.9614 H   0  0
    2.2885   -0.4287   -0.7663 H   0  0
    2.5855   -2.9818   -1.2950 H   0  0
    1.9653   -3.5983   -2.8269 H   0  0
    1.0653   -1.3731   -3.4075 H   0  0
    2.7836   -1.2528   -3.0289 H   0  0
    0.3387   -2.2090    3.1402 H   0  0
    0.5713   -3.4501    4.3244 H   0  0
   -0.4030   -4.3591    0.4034 H   0  0
  1  3  1  0
  1  4  1  0
  1  8  2  0
  2  9  1  0
  2 10  1  0
  2 11  2  0
  3  5  1  0
  4  6  1  0
  5  7  1  0
  6  7  1  0
  8 10  1  0
  3 12  1  0
  3 13  1  0
  4 14  1  0
  4 15  1  0
  5 16  1  0
  5 17  1  0
  6 18  1  0
  6 19  1  0
  7 20  1  0
  7 21  1  0
  9 22  1  0
  9 23  1  0
 10 24  1  0
M  END
> <Name>
BR020213

$$$$
BR020214
  SciTegic05062102053D

 36 38  0  0  0  0            999 V2000
   -2.3104   -2.4825    8.2242 C   0  0
   -2.7435   -3.7606    7.8717 C   0  0
   -1.4861   -1.7623    7.3595 C   0  0
   -2.3523   -4.3187    6.6547 C   0  0
   -1.0948   -2.3203    6.1425 C   0  0
   -0.9721   -5.5314    4.3607 C   0  0
   -1.5279   -3.5986    5.7901 C   0  0
   -1.1252   -4.1723    4.5384 C   0  0
   -0.5260   -4.1635    2.4287 C   0  0
    0.9359   -1.9272    0.4839 C   0  0
    1.0985   -0.4708    0.1305 C   0  0
    2.1465   -2.8156    0.3362 C   0  0
    2.2909    0.1028    0.8869 C   0  0
    3.3202   -2.1976    1.0878 C   0  0
    3.5508   -0.7406    0.6818 C   0  0
   -0.8694   -3.3863    3.4318 N   0  0
   -0.2112   -2.3823    0.8671 N   0  0
   -0.1952   -3.6990    1.1460 N   0  0
   -0.4904   -5.8497    2.7457 S   0  0
   -2.6158   -2.0473    9.1713 H   0  0
   -3.3863   -4.3210    8.5442 H   0  0
   -1.1500   -0.7666    7.6336 H   0  0
   -2.6982   -5.3163    6.3942 H   0  0
   -0.4519   -1.7459    5.4795 H   0  0
   -1.1164   -6.3338    5.0712 H   0  0
    1.2587   -0.3985   -0.9510 H   0  0
    0.1869    0.0823    0.3780 H   0  0
    1.9377   -3.8196    0.7180 H   0  0
    2.3764   -2.8997   -0.7317 H   0  0
    2.4771    1.1310    0.5566 H   0  0
    2.0585    0.1457    1.9584 H   0  0
    3.1273   -2.2419    2.1671 H   0  0
    4.2273   -2.7817    0.8982 H   0  0
    3.8562   -0.6959   -0.3707 H   0  0
    4.3729   -0.3221    1.2736 H   0  0
    0.0568   -4.3812    0.4393 H   0  0
  1  2  2  0
  1  3  1  0
  2  4  1  0
  3  5  2  0
  4  7  2  0
  5  7  1  0
  6  8  2  0
  6 19  1  0
  7  8  1  0
  8 16  1  0
  9 16  2  0
  9 18  1  0
  9 19  1  0
 10 11  1  0
 10 12  1  0
 10 17  2  0
 11 13  1  0
 12 14  1  0
 13 15  1  0
 14 15  1  0
 17 18  1  0
  1 20  1  0
  2 21  1  0
  3 22  1  0
  4 23  1  0
  5 24  1  0
  6 25  1  0
 11 26  1  0
 11 27  1  0
 12 28  1  0
 12 29  1  0
 13 30  1  0
 13 31  1  0
 14 32  1  0
 14 33  1  0
 15 34  1  0
 15 35  1  0
 18 36  1  0
M  END
> <Name>
BR020214

$$$$
BR020215
  SciTegic05062102053D

 21 21  0  0  0  0            999 V2000
   -0.0139   -2.1467    0.2267 C   0  0
   -1.8375   -3.8576    2.6671 C   0  0
    0.1089   -0.9040   -0.6032 C   0  0
    1.0725   -3.1481   -0.0348 C   0  0
    1.5138   -1.0657   -1.1710 C   0  0
    1.7061   -2.5741   -1.2963 C   0  0
   -0.9652   -2.3239    1.0788 N   0  0
   -2.8333   -2.9509    2.9124 N   0  0
   -0.8987   -3.5114    1.7273 N   0  0
   -1.7678   -5.3194    3.4750 S   0  0
   -0.6499   -0.9251   -1.3912 H   0  0
   -0.0001   -0.0003    0.0005 H   0  0
    1.7712   -3.1429    0.8071 H   0  0
    0.6718   -4.1529   -0.1857 H   0  0
    1.6326   -0.5510   -2.1289 H   0  0
    2.2514   -0.6536   -0.4713 H   0  0
    2.7599   -2.8519   -1.3907 H   0  0
    1.1777   -2.9438   -2.1837 H   0  0
   -2.8738   -2.0642    2.4212 H   0  0
   -3.5622   -3.1364    3.5931 H   0  0
   -0.1344   -4.1389    1.4969 H   0  0
  1  3  1  0
  1  4  1  0
  1  7  2  0
  2  8  1  0
  2  9  1  0
  2 10  2  0
  3  5  1  0
  4  6  1  0
  5  6  1  0
  7  9  1  0
  3 11  1  0
  3 12  1  0
  4 13  1  0
  4 14  1  0
  5 15  1  0
  5 16  1  0
  6 17  1  0
  6 18  1  0
  8 19  1  0
  8 20  1  0
  9 21  1  0
M  END
> <Name>
BR020215

$$$$
BR020216
  SciTegic05062102053D

 33 35  0  0  0  0            999 V2000
   -2.7503   -6.0750    8.5042 C   0  0
   -3.8059   -6.3727    7.6423 C   0  0
   -1.6931   -5.2791    8.0632 C   0  0
   -3.8042   -5.8746    6.3395 C   0  0
   -1.6914   -4.7810    6.7603 C   0  0
   -3.9064   -4.2822    3.8712 C   0  0
   -2.7470   -5.0787    5.8984 C   0  0
   -2.7449   -4.5663    4.5584 C   0  0
   -1.8541   -3.8593    2.6832 C   0  0
    1.1738   -3.2675    0.9992 C   0  0
    2.6708   -3.3216    1.0633 C   0  0
    0.6511   -2.7522   -0.3095 C   0  0
    3.0371   -3.1003   -0.3992 C   0  0
    1.9257   -2.2074   -0.9427 C   0  0
   -1.5670   -4.3248    3.8786 N   0  0
    0.4211   -3.6322    1.9805 N   0  0
   -0.8949   -3.5060    1.7211 N   0  0
   -3.5202   -3.6861    2.3102 S   0  0
   -2.7520   -6.4620    9.5190 H   0  0
   -4.6298   -6.9913    7.9859 H   0  0
   -0.8720   -5.0465    8.7348 H   0  0
   -4.6344   -6.1155    5.6796 H   0  0
   -0.8598   -4.1619    6.4317 H   0  0
   -4.9335   -4.3861    4.1934 H   0  0
    3.0302   -2.5056    1.6974 H   0  0
    3.0263   -4.2807    1.4463 H   0  0
    0.2404   -3.5887   -0.8827 H   0  0
   -0.1103   -1.9820   -0.1685 H   0  0
    4.0264   -2.6472   -0.5120 H   0  0
    3.0402   -4.0578   -0.9347 H   0  0
    1.8802   -2.2196   -2.0355 H   0  0
    2.0911   -1.1713   -0.6223 H   0  0
   -1.2195   -3.1557    0.8265 H   0  0
  1  2  2  0
  1  3  1  0
  2  4  1  0
  3  5  2  0
  4  7  2  0
  5  7  1  0
  6  8  2  0
  6 18  1  0
  7  8  1  0
  8 15  1  0
  9 15  2  0
  9 17  1  0
  9 18  1  0
 10 11  1  0
 10 12  1  0
 10 16  2  0
 11 13  1  0
 12 14  1  0
 13 14  1  0
 16 17  1  0
  1 19  1  0
  2 20  1  0
  3 21  1  0
  4 22  1  0
  5 23  1  0
  6 24  1  0
 11 25  1  0
 11 26  1  0
 12 27  1  0
 12 28  1  0
 13 29  1  0
 13 30  1  0
 14 31  1  0
 14 32  1  0
 17 33  1  0
M  END
> <Name>
BR020216

$$$$
BR020217
  SciTegic05062102053D

 19 19  0  0  0  0            999 V2000
   -1.2019    5.9270   -1.8837 C   0  0
   -2.0711    4.8659   -2.2382 C   0  0
   -0.1819    5.3889   -1.1304 C   0  0
   -1.5559    3.7117   -1.6906 C   0  0
   -2.0918    2.3416   -1.7722 C   0  0
   -1.6233   -1.0012   -0.8454 C   0  0
   -1.4992    1.3410   -1.2061 N   0  0
   -0.4076    4.0417   -1.0192 N   0  0
   -0.4631   -0.8937   -0.1266 N   0  0
   -2.1294    0.1552   -1.3848 N   0  0
   -2.3877   -2.4725   -1.0575 S   0  0
   -1.3086    6.9697   -2.1474 H   0  0
   -2.9738    4.9397   -2.8291 H   0  0
    0.6801    5.8428   -0.6622 H   0  0
   -3.0292    2.2123   -2.3453 H   0  0
    0.1839    3.3931   -0.5180 H   0  0
    0.0004   -0.0001   -0.0006 H   0  0
   -0.0288   -1.7046    0.3010 H   0  0
   -2.9862    0.1464   -1.9294 H   0  0
  1  2  1  0
  1  3  2  0
  2  4  2  0
  3  8  1  0
  4  5  1  0
  4  8  1  0
  5  7  2  0
  6  9  1  0
  6 10  1  0
  6 11  2  0
  7 10  1  0
  1 12  1  0
  2 13  1  0
  3 14  1  0
  5 15  1  0
  8 16  1  0
  9 17  1  0
  9 18  1  0
 10 19  1  0
M  END
> <Name>
BR020217

$$$$
BR020218
  SciTegic05062102053D

 67 68  0  0  1  0            999 V2000
    2.1633   -3.1433   -6.0789 C   0  0
    1.9038   -2.7982   -4.7526 C   0  0
    1.4474   -5.4067   -5.6300 C   0  0
    1.9351   -4.4476   -6.5177 C   0  0
    1.4162   -3.7573   -3.8650 C   0  0
    1.1880   -5.0616   -4.3037 C   0  0
    2.2037   -4.8068   -7.9011 C   0  0
   -2.9489   -2.3852    0.9259 C   0  0
   -1.9601    1.2972    0.6303 C   0  0
   -0.5781   -4.9802   -0.7549 C   0  0
    2.0851    2.3919   -3.8973 C   0  0
    2.1603   -7.3810  -10.2958 C   0  0
   -1.4240   -1.4908   -0.6420 C   0  0  1  0  0  0
   -0.7391   -0.1332   -0.8004 C   0  0  1  0  0  0
   -0.4804   -2.6337   -1.0165 C   0  0  2  0  0  0
   -0.0643   -0.0218   -2.1696 C   0  0  1  0  0  0
    0.2035   -2.3731   -2.3586 C   0  0  1  0  0  0
   -3.2456   -2.4561    2.3933 C   0  0
   -3.0176    2.3592    0.6347 C   0  0
   -1.4975   -6.1567   -0.8841 C   0  0
    2.6512    2.2726   -5.2799 C   0  0
    0.5041   -7.3156   -3.9754 C   0  0
    0.7314    1.2714   -2.3175 C   0  0
    2.0104   -6.0096   -8.3651 N   0  0
    1.6881   -8.4123   -9.5293 N   0  0
    2.3150   -6.1662   -9.6757 N   0  0
   -3.6287   -2.9235    0.0626 O   0  0
   -1.4018    0.8821    1.6368 O   0  0
    0.5888   -5.0588   -0.3953 O   0  0
    2.2827    3.3451   -3.1560 O   0  0
    0.8515   -1.1032   -2.3511 O   0  0
    1.1656   -3.4063   -2.5667 O   0  0
    0.7096   -6.0068   -3.4472 O   0  0
   -1.8241   -1.6404    0.7212 O   0  0
   -1.7290    0.8812   -0.6501 O   0  0
   -1.2427   -3.8373   -1.0959 O   0  0
    1.3285    1.2888   -3.6013 O   0  0
    2.5327   -7.5915  -11.9117 S   0  0
    2.5430   -2.3877   -6.7618 H   0  0
    2.0840   -1.7806   -4.4169 H   0  0
    1.2661   -6.4240   -5.9695 H   0  0
    2.5909   -4.0051   -8.5723 H   0  0
   -2.3429   -1.5299   -1.2405 H   0  0
   -0.0062   -0.0080    0.0071 H   0  0
    0.2643   -2.7781   -0.2236 H   0  0
   -0.8146   -0.0439   -2.9711 H   0  0
   -0.5186   -2.4258   -3.1832 H   0  0
   -2.7433   -3.3218    2.8318 H   0  0
   -4.3255   -2.5163    2.5509 H   0  0
   -2.8728   -1.5517    2.8827 H   0  0
   -2.5548    3.3438    0.5316 H   0  0
   -3.5980    2.3008    1.5589 H   0  0
   -3.6935    2.2014   -0.2108 H   0  0
   -2.0182   -6.3261    0.0616 H   0  0
   -0.9275   -7.0428   -1.1746 H   0  0
   -2.2413   -5.9522   -1.6598 H   0  0
    3.6230    1.7743   -5.2410 H   0  0
    2.7441    3.2643   -5.7296 H   0  0
    1.9763    1.6727   -5.8974 H   0  0
    0.1212   -7.9707   -3.1891 H   0  0
    1.4490   -7.7061   -4.3618 H   0  0
   -0.2245   -7.2607   -4.7877 H   0  0
    1.5109    1.3176   -1.5570 H   0  0
    0.0680    2.1303   -2.2170 H   0  0
    1.4644   -8.2831   -8.5482 H   0  0
    1.5488   -9.3392   -9.9174 H   0  0
    2.6612   -5.3595  -10.1858 H   0  0
  1  2  1  0
  1  4  2  0
  2  5  2  0
  3  4  1  0
  3  6  2  0
  4  7  1  0
  5  6  1  0
  5 32  1  0
  6 33  1  0
  7 24  2  0
  8 18  1  0
  8 27  2  0
  8 34  1  0
  9 19  1  0
  9 28  2  0
  9 35  1  0
 10 20  1  0
 10 29  2  0
 10 36  1  0
 11 21  1  0
 11 30  2  0
 11 37  1  0
 12 25  1  0
 12 26  1  0
 12 38  2  0
 13 14  1  0
 13 15  1  0
 13 34  1  0
 14 16  1  0
 14 35  1  0
 15 17  1  0
 15 36  1  0
 16 23  1  0
 16 31  1  0
 17 31  1  0
 17 32  1  0
 22 33  1  0
 23 37  1  0
 24 26  1  0
  1 39  1  0
  2 40  1  0
  3 41  1  0
  7 42  1  0
 13 43  1  0
 14 44  1  0
 15 45  1  0
 16 46  1  0
 17 47  1  0
 18 48  1  0
 18 49  1  0
 18 50  1  0
 19 51  1  0
 19 52  1  0
 19 53  1  0
 20 54  1  0
 20 55  1  0
 20 56  1  0
 21 57  1  0
 21 58  1  0
 21 59  1  0
 22 60  1  0
 22 61  1  0
 22 62  1  0
 23 63  1  0
 23 64  1  0
 25 65  1  0
 25 66  1  0
 26 67  1  0
M  END
> <Name>
BR020218

$$$$
BR020219
  SciTegic05062102053D

 79 82  0  0  1  0            999 V2000
    0.3768  -13.3901   -9.5499 C   0  0
    1.3269  -13.2294  -10.5584 C   0  0
   -0.1424  -12.2726   -8.8963 C   0  0
    1.7579  -11.9511  -10.9132 C   0  0
    0.2885  -10.9943   -9.2511 C   0  0
    2.1633   -3.1433   -6.0789 C   0  0
    1.9038   -2.7982   -4.7526 C   0  0
    1.4474   -5.4067   -5.6300 C   0  0
    2.0985   -9.2039  -11.9007 C   0  0
    1.2387  -10.8335  -10.2596 C   0  0
    1.9351   -4.4476   -6.5177 C   0  0
    1.4162   -3.7573   -3.8650 C   0  0
    1.1880   -5.0616   -4.3037 C   0  0
    1.6819   -9.5187  -10.6242 C   0  0
    2.1526   -7.4006  -10.3045 C   0  0
    2.2037   -4.8068   -7.9011 C   0  0
   -2.9489   -2.3852    0.9259 C   0  0
   -1.9601    1.2972    0.6303 C   0  0
   -0.5781   -4.9802   -0.7549 C   0  0
    2.0851    2.3919   -3.8973 C   0  0
   -1.4240   -1.4908   -0.6420 C   0  0  1  0  0  0
   -0.7391   -0.1332   -0.8004 C   0  0  1  0  0  0
   -0.4804   -2.6337   -1.0165 C   0  0  2  0  0  0
   -0.0643   -0.0218   -2.1696 C   0  0  1  0  0  0
    0.2035   -2.3731   -2.3586 C   0  0  1  0  0  0
   -3.2456   -2.4561    2.3933 C   0  0
   -3.0176    2.3592    0.6347 C   0  0
   -1.4975   -6.1567   -0.8841 C   0  0
    2.6512    2.2726   -5.2799 C   0  0
    0.5041   -7.3156   -3.9754 C   0  0
    0.7314    1.2714   -2.3175 C   0  0
    1.7126   -8.4860   -9.7074 N   0  0
    2.0094   -6.0091   -8.3657 N   0  0
    2.3126   -6.1590   -9.6698 N   0  0
   -3.6287   -2.9235    0.0626 O   0  0
   -1.4018    0.8821    1.6368 O   0  0
    0.5888   -5.0588   -0.3953 O   0  0
    2.2827    3.3451   -3.1560 O   0  0
    0.8515   -1.1032   -2.3511 O   0  0
    1.1656   -3.4063   -2.5667 O   0  0
    0.7096   -6.0068   -3.4472 O   0  0
   -1.8241   -1.6404    0.7212 O   0  0
   -1.7290    0.8812   -0.6501 O   0  0
   -1.2427   -3.8373   -1.0959 O   0  0
    1.3285    1.2888   -3.6013 O   0  0
    2.5474   -7.5500  -11.9678 S   0  0
    0.0404  -14.3853   -9.2742 H   0  0
    1.7304  -14.0992  -11.0683 H   0  0
   -0.8831  -12.3980   -8.1120 H   0  0
    2.4992  -11.8422  -11.7015 H   0  0
   -0.1260  -10.1332   -8.7320 H   0  0
    2.5430   -2.3877   -6.7618 H   0  0
    2.0840   -1.7806   -4.4169 H   0  0
    1.2661   -6.4240   -5.9695 H   0  0
    2.1589   -9.8372  -12.7752 H   0  0
    2.5910   -4.0056   -8.5729 H   0  0
   -2.3429   -1.5299   -1.2405 H   0  0
   -0.0062   -0.0080    0.0071 H   0  0
    0.2643   -2.7781   -0.2236 H   0  0
   -0.8146   -0.0439   -2.9711 H   0  0
   -0.5186   -2.4258   -3.1832 H   0  0
   -2.7433   -3.3218    2.8318 H   0  0
   -4.3255   -2.5163    2.5509 H   0  0
   -2.8728   -1.5517    2.8827 H   0  0
   -2.5548    3.3438    0.5316 H   0  0
   -3.5980    2.3008    1.5589 H   0  0
   -3.6935    2.2014   -0.2108 H   0  0
   -2.0182   -6.3261    0.0616 H   0  0
   -0.9275   -7.0428   -1.1746 H   0  0
   -2.2413   -5.9522   -1.6598 H   0  0
    3.6230    1.7743   -5.2410 H   0  0
    2.7441    3.2643   -5.7296 H   0  0
    1.9763    1.6727   -5.8974 H   0  0
    0.1212   -7.9707   -3.1891 H   0  0
    1.4490   -7.7061   -4.3618 H   0  0
   -0.2245   -7.2607   -4.7877 H   0  0
    1.5109    1.3176   -1.5570 H   0  0
    0.0680    2.1303   -2.2170 H   0  0
    2.6597   -5.3803  -10.2188 H   0  0
  1  2  2  0
  1  3  1  0
  2  4  1  0
  3  5  2  0
  4 10  2  0
  5 10  1  0
  6  7  1  0
  6 11  2  0
  7 12  2  0
  8 11  1  0
  8 13  2  0
  9 14  2  0
  9 46  1  0
 10 14  1  0
 11 16  1  0
 12 13  1  0
 12 40  1  0
 13 41  1  0
 14 32  1  0
 15 32  2  0
 15 34  1  0
 15 46  1  0
 16 33  2  0
 17 26  1  0
 17 35  2  0
 17 42  1  0
 18 27  1  0
 18 36  2  0
 18 43  1  0
 19 28  1  0
 19 37  2  0
 19 44  1  0
 20 29  1  0
 20 38  2  0
 20 45  1  0
 21 22  1  0
 21 23  1  0
 21 42  1  0
 22 24  1  0
 22 43  1  0
 23 25  1  0
 23 44  1  0
 24 31  1  0
 24 39  1  0
 25 39  1  0
 25 40  1  0
 30 41  1  0
 31 45  1  0
 33 34  1  0
  1 47  1  0
  2 48  1  0
  3 49  1  0
  4 50  1  0
  5 51  1  0
  6 52  1  0
  7 53  1  0
  8 54  1  0
  9 55  1  0
 16 56  1  0
 21 57  1  0
 22 58  1  0
 23 59  1  0
 24 60  1  0
 25 61  1  0
 26 62  1  0
 26 63  1  0
 26 64  1  0
 27 65  1  0
 27 66  1  0
 27 67  1  0
 28 68  1  0
 28 69  1  0
 28 70  1  0
 29 71  1  0
 29 72  1  0
 29 73  1  0
 30 74  1  0
 30 75  1  0
 30 76  1  0
 31 77  1  0
 31 78  1  0
 34 79  1  0
M  END
> <Name>
BR020219

$$$$
BR020220
  SciTegic05062102053D

 47 48  0  0  1  0            999 V2000
    2.0036   -6.5059   -0.8089 C   0  0
    1.8385   -5.5751   -1.8345 C   0  0
    1.1371   -4.9071    0.7817 C   0  0
    1.6528   -6.1720    0.4992 C   0  0
    1.3228   -4.3103   -1.5521 C   0  0
    0.9720   -3.9762   -0.2439 C   0  0
    1.8230   -7.1433    1.5681 C   0  0
    1.4595   -7.7716    5.0085 C   0  0
    3.1664   -1.4651   -5.0784 C   0  0  1  0  0  0
    4.2217   -0.9909   -4.0791 C   0  0  1  0  0  0
    1.9413   -2.0332   -4.3618 C   0  0  2  0  0  0
    4.5012   -2.0707   -3.0310 C   0  0  1  0  0  0
    2.3450   -3.0330   -3.2781 C   0  0  1  0  0  0
    0.1321   -2.4841    1.4065 C   0  0
    5.4601   -1.5885   -1.9469 C   0  0
    1.5136   -6.8853    2.8079 N   0  0
    0.9474   -6.5698    5.4180 N   0  0
    1.7391   -7.9046    3.6712 N   0  0
    3.2852   -2.4458   -2.3816 O   0  0
    2.7670   -0.3511   -5.8787 O   0  0
    5.4095   -0.6826   -4.8040 O   0  0
    1.1180   -2.6844   -5.3282 O   0  0
    5.6547   -2.6389   -1.0176 O   0  0
    1.1656   -3.4063   -2.5667 O   0  0
    0.4651   -2.7451    0.0444 O   0  0
    1.7330   -9.0189    6.0872 S   0  0
    2.4062   -7.4886   -1.0406 H   0  0
    2.1139   -5.8412   -2.8513 H   0  0
    0.8603   -4.6443    1.8002 H   0  0
    2.2374   -8.1410    1.2922 H   0  0
    3.5942   -2.2040   -5.7676 H   0  0
    3.8707   -0.0664   -3.6027 H   0  0
    1.3471   -1.2162   -3.9334 H   0  0
    4.9491   -2.9562   -3.5011 H   0  0
    2.7630   -3.9451   -3.7226 H   0  0
   -0.2608   -1.4685    1.4981 H   0  0
    1.0231   -2.5990    2.0288 H   0  0
   -0.6299   -3.1976    1.7292 H   0  0
    5.0364   -0.7260   -1.4322 H   0  0
    6.4181   -1.3179   -2.3908 H   0  0
    0.7838   -5.8133    4.7621 H   0  0
    0.7171   -6.3968    6.3907 H   0  0
    2.1211   -8.7693    3.3008 H   0  0
    2.4053    0.3080   -5.2677 H   0  0
    5.6817   -1.5002   -5.2486 H   0  0
    1.6580   -3.3877   -5.7197 H   0  0
    6.2674   -2.3092   -0.3382 H   0  0
  1  2  1  0
  1  4  2  0
  2  5  2  0
  3  4  1  0
  3  6  2  0
  4  7  1  0
  5  6  1  0
  5 24  1  0
  6 25  1  0
  7 16  2  0
  8 17  1  0
  8 18  1  0
  8 26  2  0
  9 10  1  0
  9 11  1  0
  9 20  1  0
 10 12  1  0
 10 21  1  0
 11 13  1  0
 11 22  1  0
 12 15  1  0
 12 19  1  0
 13 19  1  0
 13 24  1  0
 14 25  1  0
 15 23  1  0
 16 18  1  0
  1 27  1  0
  2 28  1  0
  3 29  1  0
  7 30  1  0
  9 31  1  0
 10 32  1  0
 11 33  1  0
 12 34  1  0
 13 35  1  0
 14 36  1  0
 14 37  1  0
 14 38  1  0
 15 39  1  0
 15 40  1  0
 17 41  1  0
 17 42  1  0
 18 43  1  0
 20 44  1  0
 21 45  1  0
 22 46  1  0
 23 47  1  0
M  END
> <Name>
BR020220

$$$$
BR020221
  SciTegic05062102053D

 67 68  0  0  1  0            999 V2000
    4.7834   -4.1606   -4.1697 C   0  0
    3.5938   -3.4709   -3.9356 C   0  0
    5.3214   -2.6262   -5.9567 C   0  0
    5.6472   -3.7382   -5.1803 C   0  0
    3.2680   -2.3589   -4.7121 C   0  0
    4.1317   -1.9365   -5.7226 C   0  0
    6.8885   -4.4561   -5.4229 C   0  0
   -0.1514    2.7277   -1.1123 C   0  0
   -2.1676   -0.5982   -0.6712 C   0  0
    1.0128    1.9772   -4.7638 C   0  0
   -0.0513   -3.2307    2.0855 C   0  0
    9.8063   -4.6374   -7.3766 C   0  0
    0.7233    0.6893   -1.9268 C   0  0  1  0  0  0
    0.1626   -0.3970   -1.0083 C   0  0  2  0  0  0
    1.0679    0.1207   -3.3030 C   0  0  2  0  0  0
    1.1199   -1.5934   -0.9760 C   0  0  1  0  0  0
    1.9375   -1.1315   -3.1696 C   0  0  1  0  0  0
   -1.2083    3.7587   -1.3695 C   0  0
   -3.4304   -1.0693   -1.3265 C   0  0
    1.8918    2.9615   -5.4741 C   0  0
   -0.1861   -2.6172    3.4462 C   0  0
    3.0789   -1.0858   -7.6780 C   0  0
    0.5950   -2.7518   -0.1363 C   0  0
    7.7317   -4.1072   -6.3537 N   0  0
    9.6043   -3.5682   -8.2073 N   0  0
    8.8345   -4.8891   -6.4403 N   0  0
    0.6512    2.7844   -0.1904 O   0  0
   -2.1187   -0.1064    0.4481 O   0  0
   -0.2082    1.9681   -4.8419 O   0  0
   -0.3267   -4.3949    1.8285 O   0  0
    1.3267   -2.0883   -2.3049 O   0  0
    2.0984   -1.6910   -4.4725 O   0  0
    3.8260   -0.8505   -6.4862 O   0  0
   -0.2303    1.7405   -2.0532 O   0  0
   -1.1121   -0.8043   -1.5106 O   0  0
    1.7818    1.1166   -4.0347 O   0  0
    0.4192   -2.3021    1.1952 O   0  0
   11.1723   -5.5932   -7.4975 S   0  0
    5.0271   -5.0257   -3.5585 H   0  0
    2.9250   -3.8051   -3.1472 H   0  0
    5.9938   -2.2928   -6.7438 H   0  0
    7.1053   -5.3374   -4.7752 H   0  0
    1.6205    1.1273   -1.4713 H   0  0
   -0.0004    0.0130   -0.0050 H   0  0
    0.1516   -0.0940   -3.8664 H   0  0
    2.0891   -1.2829   -0.5645 H   0  0
    2.9371   -0.8744   -2.7968 H   0  0
   -0.8169    4.5334   -2.0335 H   0  0
   -1.5403    4.1936   -0.4233 H   0  0
   -2.0667    3.2849   -1.8544 H   0  0
   -3.8817   -0.2512   -1.8932 H   0  0
   -4.1244   -1.4424   -0.5691 H   0  0
   -3.1981   -1.8852   -2.0171 H   0  0
    2.0530    3.8384   -4.8422 H   0  0
    1.4342    3.2496   -6.4239 H   0  0
    2.8609    2.4984   -5.6816 H   0  0
    0.7455   -2.7423    4.0034 H   0  0
   -1.0200   -3.0794    3.9806 H   0  0
   -0.3897   -1.5473    3.3430 H   0  0
    2.9034   -0.1376   -8.1921 H   0  0
    2.1259   -1.5570   -7.4247 H   0  0
    3.6500   -1.7509   -8.3301 H   0  0
    1.3108   -3.5747   -0.1460 H   0  0
   -0.3628   -3.0945   -0.5293 H   0  0
    8.7736   -2.9904   -8.1335 H   0  0
   10.2778   -3.3209   -8.9244 H   0  0
    8.9213   -5.6667   -5.7932 H   0  0
  1  2  1  0
  1  4  2  0
  2  5  2  0
  3  4  1  0
  3  6  2  0
  4  7  1  0
  5  6  1  0
  5 32  1  0
  6 33  1  0
  7 24  2  0
  8 18  1  0
  8 27  2  0
  8 34  1  0
  9 19  1  0
  9 28  2  0
  9 35  1  0
 10 20  1  0
 10 29  2  0
 10 36  1  0
 11 21  1  0
 11 30  2  0
 11 37  1  0
 12 25  1  0
 12 26  1  0
 12 38  2  0
 13 14  1  0
 13 15  1  0
 13 34  1  0
 14 16  1  0
 14 35  1  0
 15 17  1  0
 15 36  1  0
 16 23  1  0
 16 31  1  0
 17 31  1  0
 17 32  1  0
 22 33  1  0
 23 37  1  0
 24 26  1  0
  1 39  1  0
  2 40  1  0
  3 41  1  0
  7 42  1  0
 13 43  1  0
 14 44  1  0
 15 45  1  0
 16 46  1  0
 17 47  1  0
 18 48  1  0
 18 49  1  0
 18 50  1  0
 19 51  1  0
 19 52  1  0
 19 53  1  0
 20 54  1  0
 20 55  1  0
 20 56  1  0
 21 57  1  0
 21 58  1  0
 21 59  1  0
 22 60  1  0
 22 61  1  0
 22 62  1  0
 23 63  1  0
 23 64  1  0
 25 65  1  0
 25 66  1  0
 26 67  1  0
M  END
> <Name>
BR020221

$$$$
BR020222
  SciTegic05062102053D

 79 82  0  0  1  0            999 V2000
    8.5571    2.5270  -13.9361 C   0  0
    9.5782    1.6006  -14.1474 C   0  0
    7.9583    2.6307  -12.6805 C   0  0
   10.0006    0.7778  -13.1032 C   0  0
    8.3806    1.8079  -11.6363 C   0  0
    5.6254   -2.6391   -4.7191 C   0  0
    4.3169   -2.5392   -4.2464 C   0  0
    5.0570   -1.2227   -6.5920 C   0  0
   11.1292   -0.4331  -10.6747 C   0  0
    9.4017    0.8815  -11.8476 C   0  0
    5.9955   -1.9808   -5.8918 C   0  0
    3.3785   -1.7811   -4.9465 C   0  0
    3.7485   -1.1229   -6.1193 C   0  0
    9.8358    0.0353  -10.7736 C   0  0
    9.6276   -1.1192   -8.9205 C   0  0
    7.3604   -2.0834   -6.3834 C   0  0
   -0.1514    2.7277   -1.1123 C   0  0
   -2.1676   -0.5982   -0.6712 C   0  0
    1.0128    1.9772   -4.7638 C   0  0
   -0.0513   -3.2307    2.0855 C   0  0
    0.7233    0.6893   -1.9268 C   0  0  1  0  0  0
    0.1626   -0.3970   -1.0083 C   0  0  2  0  0  0
    1.0679    0.1207   -3.3030 C   0  0  2  0  0  0
    1.1199   -1.5934   -0.9760 C   0  0  1  0  0  0
    1.9375   -1.1315   -3.1696 C   0  0  1  0  0  0
   -1.2083    3.7587   -1.3695 C   0  0
   -3.4304   -1.0693   -1.3265 C   0  0
    1.8918    2.9615   -5.4741 C   0  0
   -0.1861   -2.6172    3.4462 C   0  0
    3.3013    0.2630   -7.9995 C   0  0
    0.5950   -2.7518   -0.1363 C   0  0
    8.9732   -0.3575   -9.7688 N   0  0
    7.7617   -1.4903   -7.4726 N   0  0
    9.0583   -1.6968   -7.7750 N   0  0
    0.6512    2.7844   -0.1904 O   0  0
   -2.1187   -0.1064    0.4481 O   0  0
   -0.2082    1.9681   -4.8419 O   0  0
   -0.3267   -4.3949    1.8285 O   0  0
    1.3267   -2.0883   -2.3049 O   0  0
    2.0984   -1.6910   -4.4725 O   0  0
    2.8419   -0.3774   -6.8108 O   0  0
   -0.2303    1.7405   -2.0532 O   0  0
   -1.1121   -0.8043   -1.5106 O   0  0
    1.7818    1.1166   -4.0347 O   0  0
    0.4192   -2.3021    1.1952 O   0  0
   11.2836   -1.4041   -9.2694 S   0  0
    8.2288    3.1685  -14.7487 H   0  0
   10.0454    1.5206  -15.1245 H   0  0
    7.1641    3.3529  -12.5159 H   0  0
   10.7978    0.0606  -13.2838 H   0  0
    7.9036    1.9011  -10.6634 H   0  0
    6.3484   -3.2326   -4.1653 H   0  0
    4.0348   -3.0546   -3.3324 H   0  0
    5.3430   -0.7062   -7.5054 H   0  0
   11.9706   -0.2598  -11.3316 H   0  0
    8.0746   -2.6993   -5.7887 H   0  0
    1.6205    1.1273   -1.4713 H   0  0
   -0.0004    0.0130   -0.0050 H   0  0
    0.1516   -0.0940   -3.8664 H   0  0
    2.0891   -1.2829   -0.5645 H   0  0
    2.9371   -0.8744   -2.7968 H   0  0
   -0.8169    4.5334   -2.0335 H   0  0
   -1.5403    4.1936   -0.4233 H   0  0
   -2.0667    3.2849   -1.8544 H   0  0
   -3.8817   -0.2512   -1.8932 H   0  0
   -4.1244   -1.4424   -0.5691 H   0  0
   -3.1981   -1.8852   -2.0171 H   0  0
    2.0530    3.8384   -4.8422 H   0  0
    1.4342    3.2496   -6.4239 H   0  0
    2.8609    2.4984   -5.6816 H   0  0
    0.7455   -2.7423    4.0034 H   0  0
   -1.0200   -3.0794    3.9806 H   0  0
   -0.3897   -1.5473    3.3430 H   0  0
    2.4802    0.8237   -8.4528 H   0  0
    3.6729   -0.4895   -8.6996 H   0  0
    4.1108    0.9504   -7.7429 H   0  0
    1.3108   -3.5747   -0.1460 H   0  0
   -0.3628   -3.0945   -0.5293 H   0  0
    9.6485   -2.2702   -7.1824 H   0  0
  1  2  2  0
  1  3  1  0
  2  4  1  0
  3  5  2  0
  4 10  2  0
  5 10  1  0
  6  7  1  0
  6 11  2  0
  7 12  2  0
  8 11  1  0
  8 13  2  0
  9 14  2  0
  9 46  1  0
 10 14  1  0
 11 16  1  0
 12 13  1  0
 12 40  1  0
 13 41  1  0
 14 32  1  0
 15 32  2  0
 15 34  1  0
 15 46  1  0
 16 33  2  0
 17 26  1  0
 17 35  2  0
 17 42  1  0
 18 27  1  0
 18 36  2  0
 18 43  1  0
 19 28  1  0
 19 37  2  0
 19 44  1  0
 20 29  1  0
 20 38  2  0
 20 45  1  0
 21 22  1  0
 21 23  1  0
 21 42  1  0
 22 24  1  0
 22 43  1  0
 23 25  1  0
 23 44  1  0
 24 31  1  0
 24 39  1  0
 25 39  1  0
 25 40  1  0
 30 41  1  0
 31 45  1  0
 33 34  1  0
  1 47  1  0
  2 48  1  0
  3 49  1  0
  4 50  1  0
  5 51  1  0
  6 52  1  0
  7 53  1  0
  8 54  1  0
  9 55  1  0
 16 56  1  0
 21 57  1  0
 22 58  1  0
 23 59  1  0
 24 60  1  0
 25 61  1  0
 26 62  1  0
 26 63  1  0
 26 64  1  0
 27 65  1  0
 27 66  1  0
 27 67  1  0
 28 68  1  0
 28 69  1  0
 28 70  1  0
 29 71  1  0
 29 72  1  0
 29 73  1  0
 30 74  1  0
 30 75  1  0
 30 76  1  0
 31 77  1  0
 31 78  1  0
 34 79  1  0
M  END
> <Name>
BR020222

$$$$
BR020223
  SciTegic05062102053D

 47 48  0  0  1  0            999 V2000
    4.4905   -3.9491   -6.0783 C   0  0
    3.4684   -3.0153   -5.9085 C   0  0
    4.7804   -4.0675   -3.6827 C   0  0
    5.1465   -4.4753   -4.9654 C   0  0
    3.1024   -2.6074   -4.6258 C   0  0
    3.7584   -3.1336   -3.5128 C   0  0
    6.2106   -5.4506   -5.1425 C   0  0
    8.5794   -7.4911   -3.5336 C   0  0
    1.2643    1.8685   -5.2922 C   0  0  1  0  0  0
    2.5826    2.4439   -4.7737 C   0  0  2  0  0  0
    1.0591    0.4361   -4.8001 C   0  0  2  0  0  0
    3.7331    1.4891   -5.1108 C   0  0  1  0  0  0
    2.2977   -0.4168   -5.0835 C   0  0  1  0  0  0
    4.1286   -3.3308   -1.1719 C   0  0
    5.0750    1.9586   -4.5619 C   0  0
    6.8583   -5.9739   -4.1395 N   0  0
    8.3193   -7.1746   -2.2273 N   0  0
    7.8187   -6.8634   -4.4883 N   0  0
    3.4722    0.1953   -4.5525 O   0  0
    0.1860    2.6954   -4.8635 O   0  0
    2.4819    2.6073   -3.3573 O   0  0
   -0.0637   -0.1179   -5.4853 O   0  0
    6.1092    1.3032   -5.2740 O   0  0
    2.0984   -1.6910   -4.4725 O   0  0
    3.4085   -2.7452   -2.2549 O   0  0
    9.7692   -8.5900   -3.9471 S   0  0
    4.7673   -4.2597   -7.0825 H   0  0
    2.9615   -2.6089   -6.7794 H   0  0
    5.2883   -4.4776   -2.8127 H   0  0
    6.4659   -5.7460   -6.1869 H   0  0
    1.2624    1.8875   -6.3894 H   0  0
    2.7481    3.4384   -5.2037 H   0  0
    0.8142    0.4323   -3.7309 H   0  0
    3.8246    1.3873   -6.1999 H   0  0
    2.4176   -0.5846   -6.1613 H   0  0
    3.7507   -2.9354   -0.2259 H   0  0
    5.1926   -3.1032   -1.2753 H   0  0
    3.9859   -4.4138   -1.1945 H   0  0
    5.1537    1.7088   -3.5032 H   0  0
    5.1760    3.0366   -4.6927 H   0  0
    7.5981   -6.5059   -1.9784 H   0  0
    8.8410   -7.5970   -1.4667 H   0  0
    7.9598   -7.0519   -5.4760 H   0  0
    0.3491    3.5767   -5.2341 H   0  0
    3.3302    2.9718   -3.0646 H   0  0
    0.1528   -0.0948   -6.4297 H   0  0
    6.9524    1.6185   -4.9065 H   0  0
  1  2  1  0
  1  4  2  0
  2  5  2  0
  3  4  1  0
  3  6  2  0
  4  7  1  0
  5  6  1  0
  5 24  1  0
  6 25  1  0
  7 16  2  0
  8 17  1  0
  8 18  1  0
  8 26  2  0
  9 10  1  0
  9 11  1  0
  9 20  1  0
 10 12  1  0
 10 21  1  0
 11 13  1  0
 11 22  1  0
 12 15  1  0
 12 19  1  0
 13 19  1  0
 13 24  1  0
 14 25  1  0
 15 23  1  0
 16 18  1  0
  1 27  1  0
  2 28  1  0
  3 29  1  0
  7 30  1  0
  9 31  1  0
 10 32  1  0
 11 33  1  0
 12 34  1  0
 13 35  1  0
 14 36  1  0
 14 37  1  0
 14 38  1  0
 15 39  1  0
 15 40  1  0
 17 41  1  0
 17 42  1  0
 18 43  1  0
 20 44  1  0
 21 45  1  0
 22 46  1  0
 23 47  1  0
M  END
> <Name>
BR020223

$$$$
BR020224
  SciTegic05062102053D

103105  0  0  1  0            999 V2000
    7.2243   -3.9498   -9.8915 C   0  0
    6.8392   -3.7589   -8.5645 C   0  0
    7.3229   -6.3350   -9.5199 C   0  0
    7.4661   -5.2378  -10.3692 C   0  0
    6.6960   -4.8561   -7.7152 C   0  0
    6.9378   -6.1441   -8.1928 C   0  0
    7.8655   -5.4368  -11.7533 C   0  0
   -1.0671    2.1466   -1.1363 C   0  0
    2.0436   -5.2254   -3.0131 C   0  0
   -0.7572   -1.3554    0.5847 C   0  0
   -0.0523    0.1030   -5.4743 C   0  0
    5.1907   -6.7917   -4.6932 C   0  0
    4.5955   -3.0774    0.8344 C   0  0
    5.5817    1.2335   -4.9684 C   0  0
    8.7512   -7.7885  -14.2127 C   0  0
    0.4788    0.5545   -1.9482 C   0  0  1  0  0  0
    3.1946   -3.8104   -4.5154 C   0  0  1  0  0  0
    0.8838   -0.2837   -0.7353 C   0  0  2  0  0  0
    3.3736   -2.2958   -4.6205 C   0  0  1  0  0  0
    0.6540   -0.2355   -3.2448 C   0  0  2  0  0  0
    4.4801   -4.5469   -4.8926 C   0  0  2  0  0  0
    2.2922   -0.8509   -0.9441 C   0  0  1  0  0  0
    3.9923   -1.9141   -5.9673 C   0  0  1  0  0  0
    5.0556   -4.0230   -6.2082 C   0  0  1  0  0  0
    2.0523   -0.8532   -3.3182 C   0  0  1  0  0  0
   -2.5316    2.4562   -1.0628 C   0  0
    1.7643   -5.4425   -1.5568 C   0  0
   -1.6978   -2.5220    0.6020 C   0  0
   -0.1850    1.1520   -6.5363 C   0  0
    4.7343   -8.2073   -4.8774 C   0  0
    5.9643   -3.5022    0.3961 C   0  0
    6.5346    1.4452   -3.8312 C   0  0
    7.0652   -8.5055   -7.9407 C   0  0
    2.7412   -1.7604    0.1933 C   0  0
    4.2972   -0.4222   -6.0605 C   0  0
    8.1056   -6.6168  -12.2527 N   0  0
    8.6493   -8.9441  -13.4858 N   0  0
    8.4680   -6.6157  -13.5581 N   0  0
   -0.1918    2.8574   -0.6611 O   0  0
    1.6054   -5.9353   -3.9082 O   0  0
   -0.6545   -0.5445    1.4953 O   0  0
   -0.3744   -1.0679   -5.6237 O   0  0
    6.3071   -6.4769   -4.3036 O   0  0
    4.0670   -3.4388    1.8771 O   0  0
    5.2089    2.1206   -5.7241 O   0  0
    2.3325   -1.6237   -2.1504 O   0  0
    5.2271   -2.6088   -6.1508 O   0  0
    6.3177   -4.6557   -6.4159 O   0  0
    6.7990   -7.2240   -7.3741 O   0  0
   -0.8765    0.9704   -1.8046 O   0  0
    2.8471   -4.1334   -3.1679 O   0  0
   -0.0555   -1.3505   -0.5852 O   0  0
    0.4733    0.6579   -4.3432 O   0  0
    4.1797   -5.9357   -5.0233 O   0  0
    4.0422   -2.2393   -0.0972 O   0  0
    5.2022   -0.0817   -5.0261 O   0  0
    2.0984   -1.6910   -4.4725 O   0  0
    9.2010   -7.8046  -15.8225 S   0  0
    7.3327   -3.0875  -10.5443 H   0  0
    6.6526   -2.7531   -8.1984 H   0  0
    7.5083   -7.3408   -9.8898 H   0  0
    7.9650   -4.5291  -12.3932 H   0  0
    1.0888    1.4661   -1.9840 H   0  0
    2.3557   -4.1426   -5.1397 H   0  0
    0.8284    0.3270    0.1731 H   0  0
    4.0047   -1.9535   -3.7902 H   0  0
   -0.1221   -1.0060   -3.3290 H   0  0
    5.2153   -4.4532   -4.0833 H   0  0
    3.0146   -0.0291   -1.0319 H   0  0
    3.3092   -2.1657   -6.7894 H   0  0
    4.4098   -4.2929   -7.0535 H   0  0
    2.8161   -0.0757   -3.4459 H   0  0
   -2.8299    3.0471   -1.9322 H   0  0
   -2.7510    2.9944   -0.1372 H   0  0
   -3.1003    1.5217   -1.0647 H   0  0
    2.5261   -6.0973   -1.1266 H   0  0
    0.7684   -5.8749   -1.4306 H   0  0
    1.7949   -4.4819   -1.0345 H   0  0
   -2.6588   -2.2301    0.1714 H   0  0
   -1.8270   -2.8792    1.6268 H   0  0
   -1.2789   -3.3344    0.0010 H   0  0
   -1.1653    1.6297   -6.4654 H   0  0
   -0.0462    0.7013   -7.5223 H   0  0
    0.5857    1.9146   -6.3911 H   0  0
    4.2875   -8.5764   -3.9509 H   0  0
    5.5792   -8.8338   -5.1743 H   0  0
    3.9791   -8.2448   -5.6678 H   0  0
    5.8961   -4.4162   -0.1989 H   0  0
    6.6019   -3.6578    1.2700 H   0  0
    6.4074   -2.7160   -0.2220 H   0  0
    5.9796    1.6980   -2.9244 H   0  0
    7.2428    2.2385   -4.0835 H   0  0
    7.0951    0.5232   -3.6513 H   0  0
    6.9175   -9.2779   -7.1820 H   0  0
    8.0932   -8.5349   -8.3106 H   0  0
    6.3762   -8.6771   -8.7711 H   0  0
    2.0595   -2.6064    0.2865 H   0  0
    2.7644   -1.2032    1.1305 H   0  0
    3.3794    0.1533   -5.9401 H   0  0
    4.7504   -0.1944   -7.0253 H   0  0
    8.3780   -8.9322  -12.5083 H   0  0
    8.8440   -9.8490  -13.9009 H   0  0
    8.5244   -5.7227  -14.0379 H   0  0
  1  2  1  0
  1  4  2  0
  2  5  2  0
  3  4  1  0
  3  6  2  0
  4  7  1  0
  5  6  1  0
  5 48  1  0
  6 49  1  0
  7 36  2  0
  8 26  1  0
  8 39  2  0
  8 50  1  0
  9 27  1  0
  9 40  2  0
  9 51  1  0
 10 28  1  0
 10 41  2  0
 10 52  1  0
 11 29  1  0
 11 42  2  0
 11 53  1  0
 12 30  1  0
 12 43  2  0
 12 54  1  0
 13 31  1  0
 13 44  2  0
 13 55  1  0
 14 32  1  0
 14 45  2  0
 14 56  1  0
 15 37  1  0
 15 38  1  0
 15 58  2  0
 16 18  1  0
 16 20  1  0
 16 50  1  0
 17 19  1  0
 17 21  1  0
 17 51  1  0
 18 22  1  0
 18 52  1  0
 19 23  1  0
 19 57  1  0
 20 25  1  0
 20 53  1  0
 21 24  1  0
 21 54  1  0
 22 34  1  0
 22 46  1  0
 23 35  1  0
 23 47  1  0
 24 47  1  0
 24 48  1  0
 25 46  1  0
 25 57  1  0
 33 49  1  0
 34 55  1  0
 35 56  1  0
 36 38  1  0
  1 59  1  0
  2 60  1  0
  3 61  1  0
  7 62  1  0
 16 63  1  0
 17 64  1  0
 18 65  1  0
 19 66  1  0
 20 67  1  0
 21 68  1  0
 22 69  1  0
 23 70  1  0
 24 71  1  0
 25 72  1  0
 26 73  1  0
 26 74  1  0
 26 75  1  0
 27 76  1  0
 27 77  1  0
 27 78  1  0
 28 79  1  0
 28 80  1  0
 28 81  1  0
 29 82  1  0
 29 83  1  0
 29 84  1  0
 30 85  1  0
 30 86  1  0
 30 87  1  0
 31 88  1  0
 31 89  1  0
 31 90  1  0
 32 91  1  0
 32 92  1  0
 32 93  1  0
 33 94  1  0
 33 95  1  0
 33 96  1  0
 34 97  1  0
 34 98  1  0
 35 99  1  0
 35100  1  0
 37101  1  0
 37102  1  0
 38103  1  0
M  END
> <Name>
BR020224

$$$$
BR020225
  SciTegic05062102053D

115119  0  0  1  0            999 V2000
    9.1304  -14.0660  -13.6684 C   0  0
    9.9845  -13.5555  -14.6459 C   0  0
    8.2474  -13.2169  -13.0013 C   0  0
    9.9556  -12.1959  -14.9563 C   0  0
    8.2185  -11.8573  -13.3117 C   0  0
    7.2243   -3.9498   -9.8915 C   0  0
    6.8392   -3.7589   -8.5645 C   0  0
    7.3229   -6.3350   -9.5199 C   0  0
    9.3476   -9.4675  -15.8642 C   0  0
    9.0726  -11.3468  -14.2892 C   0  0
    7.4661   -5.2378  -10.3692 C   0  0
    6.6960   -4.8561   -7.7152 C   0  0
    6.9378   -6.1441   -8.1928 C   0  0
    9.0428   -9.9484  -14.6080 C   0  0
    8.7509   -7.8093  -14.2220 C   0  0
    7.8655   -5.4368  -11.7533 C   0  0
   -1.0671    2.1466   -1.1363 C   0  0
    2.0436   -5.2254   -3.0131 C   0  0
   -0.7572   -1.3554    0.5847 C   0  0
   -0.0523    0.1030   -5.4743 C   0  0
    5.1907   -6.7917   -4.6932 C   0  0
    4.5955   -3.0774    0.8344 C   0  0
    5.5817    1.2335   -4.9684 C   0  0
    0.4788    0.5545   -1.9482 C   0  0  1  0  0  0
    3.1946   -3.8104   -4.5154 C   0  0  1  0  0  0
    0.8838   -0.2837   -0.7353 C   0  0  2  0  0  0
    3.3736   -2.2958   -4.6205 C   0  0  1  0  0  0
    0.6540   -0.2355   -3.2448 C   0  0  2  0  0  0
    4.4801   -4.5469   -4.8926 C   0  0  2  0  0  0
    2.2922   -0.8509   -0.9441 C   0  0  1  0  0  0
    3.9923   -1.9141   -5.9673 C   0  0  1  0  0  0
    5.0556   -4.0230   -6.2082 C   0  0  1  0  0  0
    2.0523   -0.8532   -3.3182 C   0  0  1  0  0  0
   -2.5316    2.4562   -1.0628 C   0  0
    1.7643   -5.4425   -1.5568 C   0  0
   -1.6978   -2.5220    0.6020 C   0  0
   -0.1850    1.1520   -6.5363 C   0  0
    4.7343   -8.2073   -4.8774 C   0  0
    5.9643   -3.5022    0.3961 C   0  0
    6.5346    1.4452   -3.8312 C   0  0
    7.0652   -8.5055   -7.9407 C   0  0
    2.7412   -1.7604    0.1933 C   0  0
    4.2972   -0.4222   -6.0605 C   0  0
    8.7008   -8.9990  -13.6650 N   0  0
    8.1046   -6.6167  -12.2533 N   0  0
    8.4631   -6.6100  -13.5520 N   0  0
   -0.1918    2.8574   -0.6611 O   0  0
    1.6054   -5.9353   -3.9082 O   0  0
   -0.6545   -0.5445    1.4953 O   0  0
   -0.3744   -1.0679   -5.6237 O   0  0
    6.3071   -6.4769   -4.3036 O   0  0
    4.0670   -3.4388    1.8771 O   0  0
    5.2089    2.1206   -5.7241 O   0  0
    2.3325   -1.6237   -2.1504 O   0  0
    5.2271   -2.6088   -6.1508 O   0  0
    6.3177   -4.6557   -6.4159 O   0  0
    6.7990   -7.2240   -7.3741 O   0  0
   -0.8765    0.9704   -1.8046 O   0  0
    2.8471   -4.1334   -3.1679 O   0  0
   -0.0555   -1.3505   -0.5852 O   0  0
    0.4733    0.6579   -4.3432 O   0  0
    4.1797   -5.9357   -5.0233 O   0  0
    4.0422   -2.2393   -0.0972 O   0  0
    5.2022   -0.0817   -5.0261 O   0  0
    2.0984   -1.6910   -4.4725 O   0  0
    9.2015   -7.7588  -15.8771 S   0  0
    9.1520  -15.1248  -13.4273 H   0  0
   10.6712  -14.2166  -15.1664 H   0  0
    7.5816  -13.6149  -12.2411 H   0  0
   10.6277  -11.8131  -15.7208 H   0  0
    7.5243  -11.2086  -12.7825 H   0  0
    7.3327   -3.0875  -10.5443 H   0  0
    6.6526   -2.7531   -8.1984 H   0  0
    7.5083   -7.3408   -9.8898 H   0  0
    9.6371  -10.0122  -16.7525 H   0  0
    7.9652   -4.5295  -12.3937 H   0  0
    1.0888    1.4661   -1.9840 H   0  0
    2.3557   -4.1426   -5.1397 H   0  0
    0.8284    0.3270    0.1731 H   0  0
    4.0047   -1.9535   -3.7902 H   0  0
   -0.1221   -1.0060   -3.3290 H   0  0
    5.2153   -4.4532   -4.0833 H   0  0
    3.0146   -0.0291   -1.0319 H   0  0
    3.3092   -2.1657   -6.7894 H   0  0
    4.4098   -4.2929   -7.0535 H   0  0
    2.8161   -0.0757   -3.4459 H   0  0
   -2.8299    3.0471   -1.9322 H   0  0
   -2.7510    2.9944   -0.1372 H   0  0
   -3.1003    1.5217   -1.0647 H   0  0
    2.5261   -6.0973   -1.1266 H   0  0
    0.7684   -5.8749   -1.4306 H   0  0
    1.7949   -4.4819   -1.0345 H   0  0
   -2.6588   -2.2301    0.1714 H   0  0
   -1.8270   -2.8792    1.6268 H   0  0
   -1.2789   -3.3344    0.0010 H   0  0
   -1.1653    1.6297   -6.4654 H   0  0
   -0.0462    0.7013   -7.5223 H   0  0
    0.5857    1.9146   -6.3911 H   0  0
    4.2875   -8.5764   -3.9509 H   0  0
    5.5792   -8.8338   -5.1743 H   0  0
    3.9791   -8.2448   -5.6678 H   0  0
    5.8961   -4.4162   -0.1989 H   0  0
    6.6019   -3.6578    1.2700 H   0  0
    6.4074   -2.7160   -0.2220 H   0  0
    5.9796    1.6980   -2.9244 H   0  0
    7.2428    2.2385   -4.0835 H   0  0
    7.0951    0.5232   -3.6513 H   0  0
    6.9175   -9.2779   -7.1820 H   0  0
    8.0932   -8.5349   -8.3106 H   0  0
    6.3762   -8.6771   -8.7711 H   0  0
    2.0595   -2.6064    0.2865 H   0  0
    2.7644   -1.2032    1.1305 H   0  0
    3.3794    0.1533   -5.9401 H   0  0
    4.7504   -0.1944   -7.0253 H   0  0
    8.5307   -5.7417  -14.0714 H   0  0
  1  2  2  0
  1  3  1  0
  2  4  1  0
  3  5  2  0
  4 10  2  0
  5 10  1  0
  6  7  1  0
  6 11  2  0
  7 12  2  0
  8 11  1  0
  8 13  2  0
  9 14  2  0
  9 66  1  0
 10 14  1  0
 11 16  1  0
 12 13  1  0
 12 56  1  0
 13 57  1  0
 14 44  1  0
 15 44  2  0
 15 46  1  0
 15 66  1  0
 16 45  2  0
 17 34  1  0
 17 47  2  0
 17 58  1  0
 18 35  1  0
 18 48  2  0
 18 59  1  0
 19 36  1  0
 19 49  2  0
 19 60  1  0
 20 37  1  0
 20 50  2  0
 20 61  1  0
 21 38  1  0
 21 51  2  0
 21 62  1  0
 22 39  1  0
 22 52  2  0
 22 63  1  0
 23 40  1  0
 23 53  2  0
 23 64  1  0
 24 26  1  0
 24 28  1  0
 24 58  1  0
 25 27  1  0
 25 29  1  0
 25 59  1  0
 26 30  1  0
 26 60  1  0
 27 31  1  0
 27 65  1  0
 28 33  1  0
 28 61  1  0
 29 32  1  0
 29 62  1  0
 30 42  1  0
 30 54  1  0
 31 43  1  0
 31 55  1  0
 32 55  1  0
 32 56  1  0
 33 54  1  0
 33 65  1  0
 41 57  1  0
 42 63  1  0
 43 64  1  0
 45 46  1  0
  1 67  1  0
  2 68  1  0
  3 69  1  0
  4 70  1  0
  5 71  1  0
  6 72  1  0
  7 73  1  0
  8 74  1  0
  9 75  1  0
 16 76  1  0
 24 77  1  0
 25 78  1  0
 26 79  1  0
 27 80  1  0
 28 81  1  0
 29 82  1  0
 30 83  1  0
 31 84  1  0
 32 85  1  0
 33 86  1  0
 34 87  1  0
 34 88  1  0
 34 89  1  0
 35 90  1  0
 35 91  1  0
 35 92  1  0
 36 93  1  0
 36 94  1  0
 36 95  1  0
 37 96  1  0
 37 97  1  0
 37 98  1  0
 38 99  1  0
 38100  1  0
 38101  1  0
 39102  1  0
 39103  1  0
 39104  1  0
 40105  1  0
 40106  1  0
 40107  1  0
 41108  1  0
 41109  1  0
 41110  1  0
 42111  1  0
 42112  1  0
 43113  1  0
 43114  1  0
 46115  1  0
M  END
> <Name>
BR020225

$$$$
BR020226
  SciTegic05062102053D

 41 43  0  0  0  0            999 V2000
    1.9791   -0.9410   -0.1065 C   0  0
    2.2392   -2.1359    0.5643 C   0  0
    1.6510    0.2068    0.6150 C   0  0
    2.1711   -2.1832    1.9567 C   0  0
    1.5829    0.1596    2.0074 C   0  0
   -2.7447    3.2053    8.8800 C   0  0
   -3.7037    4.2117    8.7658 C   0  0
   -2.5053    3.1605    6.4763 C   0  0
    2.5445   -1.9446    4.8636 C   0  0
    1.8429   -1.0354    2.6783 C   0  0
   -2.1454    2.6797    7.7353 C   0  0
   -4.0635    4.6925    7.5069 C   0  0
   -3.4643    4.1669    6.3621 C   0  0
    1.7726   -1.0838    4.1118 C   0  0
    1.0614   -0.5089    6.1053 C   0  0
   -1.1308    1.6182    7.8562 C   0  0
   -5.5649    6.1579    8.6268 C   0  0
   -3.1460    4.0391    4.0088 C   0  0
    0.9212   -0.2600    4.8221 N   0  0
   -0.5519    1.1042    6.8202 N   0  0
    0.3697    0.1263    7.0884 N   0  0
   -5.0014    5.6757    7.4086 O   0  0
   -3.8053    4.6297    5.1271 O   0  0
    2.2001   -1.7209    6.5288 S   0  0
    2.0331   -0.9037   -1.1906 H   0  0
    2.4960   -3.0294    0.0028 H   0  0
    1.4498    1.1374    0.0926 H   0  0
    2.3766   -3.1223    2.4652 H   0  0
    1.3257    1.0631    2.5554 H   0  0
   -2.4719    2.8383    9.8661 H   0  0
   -4.1670    4.6167    9.6613 H   0  0
   -2.0382    2.7546    5.5819 H   0  0
    3.2751   -2.6710    4.5349 H   0  0
   -0.8886    1.2815    8.8819 H   0  0
   -6.2976    6.9381    8.4065 H   0  0
   -4.7714    6.5575    9.2633 H   0  0
   -6.0602    5.3309    9.1412 H   0  0
   -3.5095    4.4983    3.0863 H   0  0
   -3.3420    2.9640    3.9951 H   0  0
   -2.0707    4.2103    4.0991 H   0  0
    0.5280   -0.1178    8.0823 H   0  0
  1  2  2  0
  1  3  1  0
  2  4  1  0
  3  5  2  0
  4 10  2  0
  5 10  1  0
  6  7  1  0
  6 11  2  0
  7 12  2  0
  8 11  1  0
  8 13  2  0
  9 14  2  0
  9 24  1  0
 10 14  1  0
 11 16  1  0
 12 13  1  0
 12 22  1  0
 13 23  1  0
 14 19  1  0
 15 19  2  0
 15 21  1  0
 15 24  1  0
 16 20  2  0
 17 22  1  0
 18 23  1  0
 20 21  1  0
  1 25  1  0
  2 26  1  0
  3 27  1  0
  4 28  1  0
  5 29  1  0
  6 30  1  0
  7 31  1  0
  8 32  1  0
  9 33  1  0
 16 34  1  0
 17 35  1  0
 17 36  1  0
 17 37  1  0
 18 38  1  0
 18 39  1  0
 18 40  1  0
 21 41  1  0
M  END
> <Name>
BR020226

$$$$
BR020227
  SciTegic05062102053D

 32 33  0  0  1  0            999 V2000
    1.4559    4.9933    1.1916 C   0  0
    2.1326    6.1980    1.4982 C   0  0
    2.3679    3.9824    1.3876 C   0  0
    3.4097    5.8373    1.8600 C   0  0
    2.2540    2.5213    1.2322 C   0  0
    1.6667    0.0625   -0.5313 C   0  0
    0.5937    0.1905   -1.6067 C   0  0
   -1.1500   -0.0546    0.5290 C   0  0
    0.1351   -0.1677    1.3551 C   0  0  2  0  0  0
   -0.1212    0.2493    2.8067 C   0  0
    1.1556    1.9559    0.8497 N   0  0
    1.2414    0.6093    0.7649 N   0  0
    4.5395    6.5506    2.2651 N   0  3
    4.4912    7.8131    2.3544 O   0  5
   -0.6312   -2.0687   -1.0752 O   0  5
    5.6101    5.9338    2.5428 O   0  0
   -1.9838   -0.1304   -1.9567 O   0  0
    3.5613    4.4885    1.7953 O   0  0
   -0.9062   -0.6463   -1.1355 S   0  3
    0.4308    4.8806    0.8682 H   0  0
    1.7347    7.2021    1.4591 H   0  0
    3.1606    1.9297    1.4611 H   0  0
    1.9531   -0.9894   -0.4072 H   0  0
    2.5745    0.5808   -0.8641 H   0  0
    0.3396    1.2389   -1.7947 H   0  0
    0.9311   -0.2560   -2.5471 H   0  0
   -1.9541   -0.6584    0.9626 H   0  0
   -1.4974    0.9821    0.4609 H   0  0
    0.4440   -1.2117    1.3938 H   0  0
   -0.4353    1.2898    2.8371 H   0  0
    0.7911    0.1315    3.3863 H   0  0
   -0.9022   -0.3754    3.2330 H   0  0
  1  2  1  0
  1  3  2  0
  2  4  2  0
  3  5  1  0
  3 18  1  0
  4 13  1  0
  4 18  1  0
  5 11  2  0
  6  7  1  0
  6 12  1  0
  7 19  1  0
  8  9  1  0
  8 19  1  0
  9 10  1  0
  9 12  1  0
 11 12  1  0
 13 14  1  0
 13 16  2  0
 15 19  1  0
 17 19  2  0
  1 20  1  0
  2 21  1  0
  5 22  1  0
  6 23  1  0
  6 24  1  0
  7 25  1  0
  7 26  1  0
  8 27  1  0
  8 28  1  0
  9 29  1  0
 10 30  1  0
 10 31  1  0
 10 32  1  0
M  CHG  4  13   1  14  -1  15  -1  19   1
M  END
> <Name>
BR020227

$$$$
BR020228
  SciTegic05062102053D

 32 33  0  0  1  0            999 V2000
   -3.8824    1.8813    3.1385 C   0  0
   -4.6772    2.5379    4.1081 C   0  0
   -2.6828    2.5537    3.1089 C   0  0
   -3.9067    3.5646    4.6021 C   0  0
   -1.4645    2.3418    2.3073 C   0  0
    0.8677    0.5301    1.4249 C   0  0
    0.6031   -0.9655    1.2939 C   0  0
   -0.6385   -0.2329   -1.0693 C   0  0
   -0.2134    1.1820   -0.6639 C   0  0  1  0  0  0
   -1.1235    2.2250   -1.3200 C   0  0
   -1.3722    1.3878    1.4390 N   0  0
   -0.1804    1.3502    0.8013 N   0  0
   -4.1149    4.5561    5.5628 N   0  3
   -5.2204    4.6181    6.1775 O   0  5
   -0.1930   -2.7443   -0.4585 O   0  5
   -3.1976    5.3913    5.8177 O   0  0
    1.7733   -1.2729   -1.0349 O   0  0
   -2.6894    3.5811    3.9983 O   0  0
    0.4769   -1.4594   -0.4125 S   0  3
   -4.1542    1.0247    2.5380 H   0  0
   -5.6860    2.2900    4.4066 H   0  0
   -0.6282    3.0436    2.4876 H   0  0
    0.9485    0.7907    2.4874 H   0  0
    1.8396    0.7814    0.9823 H   0  0
    1.4183   -1.5442    1.7391 H   0  0
   -0.3315   -1.2510    1.7878 H   0  0
   -1.6426   -0.4742   -0.7039 H   0  0
   -0.6313   -0.3526   -2.1579 H   0  0
    0.7885    1.3766   -1.0449 H   0  0
   -2.1458    2.0834   -0.9781 H   0  0
   -1.0864    2.1128   -2.4008 H   0  0
   -0.7880    3.2232   -1.0495 H   0  0
  1  2  1  0
  1  3  2  0
  2  4  2  0
  3  5  1  0
  3 18  1  0
  4 13  1  0
  4 18  1  0
  5 11  2  0
  6  7  1  0
  6 12  1  0
  7 19  1  0
  8  9  1  0
  8 19  1  0
  9 10  1  0
  9 12  1  0
 11 12  1  0
 13 14  1  0
 13 16  2  0
 15 19  1  0
 17 19  2  0
  1 20  1  0
  2 21  1  0
  5 22  1  0
  6 23  1  0
  6 24  1  0
  7 25  1  0
  7 26  1  0
  8 27  1  0
  8 28  1  0
  9 29  1  0
 10 30  1  0
 10 31  1  0
 10 32  1  0
M  CHG  4  13   1  14  -1  15  -1  19   1
M  END
> <Name>
BR020228

$$$$
BR020229
  SciTegic05062102053D

 31 32  0  0  0  0            999 V2000
    1.6638    2.4738    6.5198 C   0  0
    0.7920    2.3269    5.4410 C   0  0
    2.5652    1.4559    6.8317 C   0  0
    0.8215    1.1622    4.6740 C   0  0
    2.5947    0.2912    6.0647 C   0  0
   -4.7523   -3.2110    4.8904 C   0  0
   -3.5813   -3.7181    4.3786 C   0  0
    1.7229    0.1444    4.9859 C   0  0
   -3.1975   -2.3298    6.0466 C   0  0
   -0.4625   -2.2241    4.2663 C   0  0
    1.7548   -1.1014    4.1663 C   0  0
   -1.1618   -3.3717    4.9629 C   0  0
   -4.5066   -2.3472    5.9283 N   0  0
   -2.5940   -3.1442    5.1291 N   0  0
    0.8616   -2.1127    4.6720 N   0  0
   -2.5154   -1.5648    6.9993 N   0  3
   -3.0642   -1.3085    8.1097 O   0  5
   -1.0136   -1.4915    3.4491 O   0  0
   -1.3536   -1.1342    6.7448 O   0  0
    1.6417    3.3813    7.1161 H   0  0
    0.0909    3.1198    5.1973 H   0  0
    3.2449    1.5704    7.6709 H   0  0
    0.1384    1.0565    3.8353 H   0  0
    3.3003   -0.4965    6.3152 H   0  0
   -5.7601   -3.4238    4.5643 H   0  0
   -3.3736   -4.4113    3.5754 H   0  0
    1.4674   -0.8979    3.1252 H   0  0
    2.7621   -1.5389    4.1374 H   0  0
   -0.7239   -3.5248    5.9557 H   0  0
   -1.0295   -4.2935    4.3852 H   0  0
    1.2152   -2.7493    5.3826 H   0  0
  1  2  2  0
  1  3  1  0
  2  4  1  0
  3  5  2  0
  4  8  2  0
  5  8  1  0
  6  7  2  0
  6 13  1  0
  7 14  1  0
  8 11  1  0
  9 13  2  0
  9 14  1  0
  9 16  1  0
 10 12  1  0
 10 15  1  0
 10 18  2  0
 11 15  1  0
 12 14  1  0
 16 17  1  0
 16 19  2  0
  1 20  1  0
  2 21  1  0
  3 22  1  0
  4 23  1  0
  5 24  1  0
  6 25  1  0
  7 26  1  0
 11 27  1  0
 11 28  1  0
 12 29  1  0
 12 30  1  0
 15 31  1  0
M  CHG  2  16   1  17  -1
M  END
> <Name>
BR020229

$$$$
BR020230
  SciTegic05062102053D

 18 19  0  0  0  0            999 V2000
    1.9499   -0.7740   -0.8259 C   0  0
    0.6549   -0.7784   -0.3640 C   0  0
    1.3133   -2.8020   -0.9371 C   0  0
    1.2635   -4.1990   -1.1513 C   0  0
    1.6252   -6.4744   -1.6597 C   0  0
    2.3537   -2.0366   -1.1813 N   0  0
    0.2008   -4.9312   -0.8936 N   0  0
    0.4133   -6.2660   -1.1909 N   0  0
    0.2603   -2.0844   -0.4416 N   0  0
    2.1184   -7.6816   -2.0373 N   0  0
   -0.1812    0.2370    0.1047 N   0  3
    0.2405    1.4301    0.1538 O   0  5
   -1.3593   -0.0376    0.4793 O   0  0
    2.6024   -5.0699   -1.7763 S   0  0
    2.6157    0.0718   -0.9213 H   0  0
   -0.6454   -2.4522   -0.1796 H   0  0
    1.5725   -8.5450   -1.9340 H   0  0
    3.0891   -7.7941   -2.3525 H   0  0
  1  2  2  0
  1  6  1  0
  2  9  1  0
  2 11  1  0
  3  4  1  0
  3  6  2  0
  3  9  1  0
  4  7  2  0
  4 14  1  0
  5  8  2  0
  5 10  1  0
  5 14  1  0
  7  8  1  0
 11 12  1  0
 11 13  2  0
  1 15  1  0
  9 16  1  0
 10 17  1  0
 10 18  1  0
M  CHG  2  11   1  12  -1
M  END
> <Name>
BR020230

$$$$
BR020231
  SciTegic05062102053D

 19 19  0  0  0  0            999 V2000
    1.8851   -1.0363   -0.1124 C   0  0
    0.8066   -0.4630    0.5610 C   0  0
    2.8783   -1.6520    2.0022 C   0  0
    2.9210   -1.6309    0.6081 C   0  0
    0.7638   -0.4841    1.9551 C   0  0
    1.7997   -1.0786    2.6757 C   0  0
    4.0589   -2.2355   -0.1031 C   0  0
   -0.4061    0.1390    2.6458 C   0  0
    1.7768   -1.1112    4.0974 N   0  3
    5.0026   -2.7779    0.5853 O   0  5
    2.2969   -0.1643    4.7334 O   0  5
    4.0736   -2.2022   -1.3905 O   0  0
    1.2370   -2.0858    4.6722 O   0  0
    1.9087   -1.0145   -1.1989 H   0  0
    0.0045   -0.0024   -0.0098 H   0  0
    3.6885   -2.1166    2.5606 H   0  0
   -1.1988   -0.6032    2.7920 H   0  0
   -0.1185    0.5421    3.6242 H   0  0
   -0.8109    0.9742    2.0617 H   0  0
  1  2  2  0
  1  4  1  0
  2  5  1  0
  3  4  2  0
  3  6  1  0
  4  7  1  0
  5  6  2  0
  5  8  1  0
  6  9  1  0
  7 10  1  0
  7 12  2  0
  9 11  1  0
  9 13  2  0
  1 14  1  0
  2 15  1  0
  3 16  1  0
  8 17  1  0
  8 18  1  0
  8 19  1  0
M  CHG  3   9   1  10  -1  11  -1
M  END
> <Name>
BR020231

$$$$
BR020232
  SciTegic05062102053D

 19 19  0  0  0  0            999 V2000
    1.8851   -1.0363   -0.1124 C   0  0
    0.8066   -0.4630    0.5610 C   0  0
    2.8783   -1.6520    2.0022 C   0  0
    2.9210   -1.6309    0.6081 C   0  0
    0.7638   -0.4841    1.9551 C   0  0
    1.7997   -1.0786    2.6757 C   0  0
    4.0589   -2.2355   -0.1031 C   0  0
   -0.4061    0.1390    2.6458 C   0  0
    1.7768   -1.1112    4.0974 N   0  3
    5.0026   -2.7779    0.5853 O   0  5
    2.2969   -0.1643    4.7334 O   0  5
    4.0736   -2.2022   -1.3905 O   0  0
    1.2370   -2.0858    4.6722 O   0  0
   -1.9632   -1.0078    2.4445 Br  0  0
    1.9087   -1.0145   -1.1989 H   0  0
    0.0045   -0.0024   -0.0098 H   0  0
    3.6885   -2.1166    2.5606 H   0  0
   -0.6641    1.1142    2.2208 H   0  0
   -0.2320    0.2643    3.7195 H   0  0
  1  2  2  0
  1  4  1  0
  2  5  1  0
  3  4  2  0
  3  6  1  0
  4  7  1  0
  5  6  2  0
  5  8  1  0
  6  9  1  0
  7 10  1  0
  7 12  2  0
  8 14  1  0
  9 11  1  0
  9 13  2  0
  1 15  1  0
  2 16  1  0
  3 17  1  0
  8 18  1  0
  8 19  1  0
M  CHG  3   9   1  10  -1  11  -1
M  END
> <Name>
BR020232

$$$$
BR020233
  SciTegic05062102053D

 25 25  0  0  0  0            999 V2000
    1.8851   -1.0363   -0.1124 C   0  0
    0.8066   -0.4630    0.5610 C   0  0
    2.8783   -1.6520    2.0022 C   0  0
    2.9210   -1.6309    0.6081 C   0  0
    0.7638   -0.4841    1.9551 C   0  0
    1.7997   -1.0786    2.6757 C   0  0
    4.0589   -2.2355   -0.1031 C   0  0
   -2.3843   -0.4601    3.7911 C   0  0
   -3.1888   -1.6411    4.2431 C   0  0
   -0.4061    0.1390    2.6458 C   0  0
    1.7768   -1.1112    4.0974 N   0  3
    5.0026   -2.7779    0.5853 O   0  5
    2.2969   -0.1643    4.7334 O   0  5
    4.0736   -2.2022   -1.3905 O   0  0
   -2.7030    0.7038    3.9930 O   0  0
    1.2370   -2.0858    4.6722 O   0  0
   -1.2637   -0.8848    3.1318 O   0  0
    1.9087   -1.0145   -1.1989 H   0  0
    0.0045   -0.0024   -0.0098 H   0  0
    3.6885   -2.1166    2.5606 H   0  0
   -3.9052   -1.9209    3.4669 H   0  0
   -3.7051   -1.4028    5.1765 H   0  0
   -2.5202   -2.4881    4.4222 H   0  0
   -0.0840    0.7605    3.4910 H   0  0
   -0.9725    0.7807    1.9591 H   0  0
  1  2  2  0
  1  4  1  0
  2  5  1  0
  3  4  2  0
  3  6  1  0
  4  7  1  0
  5  6  2  0
  5 10  1  0
  6 11  1  0
  7 12  1  0
  7 14  2  0
  8  9  1  0
  8 15  2  0
  8 17  1  0
 10 17  1  0
 11 13  1  0
 11 16  2  0
  1 18  1  0
  2 19  1  0
  3 20  1  0
  9 21  1  0
  9 22  1  0
  9 23  1  0
 10 24  1  0
 10 25  1  0
M  CHG  3  11   1  12  -1  13  -1
M  END
> <Name>
BR020233

$$$$
BR020234
  SciTegic05062102053D

 20 20  0  0  0  0            999 V2000
    1.8851   -1.0363   -0.1124 C   0  0
    0.8066   -0.4630    0.5610 C   0  0
    2.8783   -1.6520    2.0022 C   0  0
    2.9210   -1.6309    0.6081 C   0  0
    0.7638   -0.4841    1.9551 C   0  0
    1.7997   -1.0786    2.6757 C   0  0
    4.0589   -2.2355   -0.1031 C   0  0
   -0.4061    0.1390    2.6458 C   0  0
    1.7768   -1.1112    4.0974 N   0  3
    5.0026   -2.7779    0.5853 O   0  5
    2.2969   -0.1643    4.7334 O   0  5
    4.0736   -2.2022   -1.3905 O   0  0
    1.2370   -2.0858    4.6722 O   0  0
   -1.2637   -0.8848    3.1318 O   0  0
    1.9087   -1.0145   -1.1989 H   0  0
    0.0045   -0.0024   -0.0098 H   0  0
    3.6885   -2.1166    2.5606 H   0  0
   -0.0840    0.7605    3.4910 H   0  0
   -0.9725    0.7807    1.9591 H   0  0
   -2.0075   -0.4420    3.5716 H   0  0
  1  2  2  0
  1  4  1  0
  2  5  1  0
  3  4  2  0
  3  6  1  0
  4  7  1  0
  5  6  2  0
  5  8  1  0
  6  9  1  0
  7 10  1  0
  7 12  2  0
  8 14  1  0
  9 11  1  0
  9 13  2  0
  1 15  1  0
  2 16  1  0
  3 17  1  0
  8 18  1  0
  8 19  1  0
 14 20  1  0
M  CHG  3   9   1  10  -1  11  -1
M  END
> <Name>
BR020234

$$$$
BR020235
  SciTegic05062102053D

 23 23  0  0  0  0            999 V2000
    1.8851   -1.0363   -0.1124 C   0  0
    0.8066   -0.4630    0.5610 C   0  0
    2.8783   -1.6520    2.0022 C   0  0
    2.9210   -1.6309    0.6081 C   0  0
    0.7638   -0.4841    1.9551 C   0  0
    1.7997   -1.0786    2.6757 C   0  0
    4.0457   -2.2287   -0.0938 C   0  0
    4.6979   -3.3287   -2.1080 C   0  0
   -0.4059    0.1394    2.6460 C   0  0
    1.7770   -1.1109    4.0974 N   0  3
    2.2972   -0.1639    4.7331 O   0  5
    5.1971   -2.2950    0.3567 O   0  0
    1.2371   -2.0853    4.6725 O   0  0
    3.6746   -2.7128   -1.3186 O   0  0
   -1.9633   -1.0068    2.4447 Br  0  0
    1.9086   -1.0143   -1.1992 H   0  0
    0.0037   -0.0038   -0.0100 H   0  0
    3.6886   -2.1163    2.5608 H   0  0
    4.2728   -3.6697   -3.0551 H   0  0
    5.1218   -4.1746   -1.5610 H   0  0
    5.4832   -2.5955   -2.3067 H   0  0
   -0.6635    1.1147    2.2209 H   0  0
   -0.2316    0.2646    3.7195 H   0  0
  1  2  2  0
  1  4  1  0
  2  5  1  0
  3  4  2  0
  3  6  1  0
  4  7  1  0
  5  6  2  0
  5  9  1  0
  6 10  1  0
  7 12  2  0
  7 14  1  0
  8 14  1  0
  9 15  1  0
 10 11  1  0
 10 13  2  0
  1 16  1  0
  2 17  1  0
  3 18  1  0
  8 19  1  0
  8 20  1  0
  8 21  1  0
  9 22  1  0
  9 23  1  0
M  CHG  2  10   1  11  -1
M  END
> <Name>
BR020235

$$$$
BR020236
  SciTegic05062102053D

 36 36  0  0  0  0            999 V2000
    4.3726   -3.1591    0.9067 C   0  0
    5.4868   -3.7317    0.2932 C   0  0
    2.9977   -3.8308   -0.9629 C   0  0
    3.1281   -3.2087    0.2787 C   0  0
    5.3564   -4.3538   -0.9484 C   0  0
    4.1119   -4.4034   -1.5765 C   0  0
    1.9413   -2.5989    0.9320 C   0  0
    7.5600   -7.0627   -1.9919 C   0  0
    7.3603   -8.5341   -1.7889 C   0  0
    1.4525   -1.3583    4.3613 C   0  0
   -0.0914   -3.1093    3.4144 C   0  0
    6.5700   -4.9572   -1.5789 C   0  0
    0.8914   -1.9919    3.0965 C   0  0
    2.0086   -2.5484    2.2952 N   0  0
    3.9562   -5.0321   -2.8428 N   0  3
    4.1045   -4.3463   -3.8817 O   0  5
    1.0051   -2.2138    0.2364 O   0  0
    8.5294   -6.5743   -2.5564 O   0  0
    3.6757   -6.2533   -2.8822 O   0  0
    6.5082   -6.3717   -1.4561 O   0  0
    4.4853   -2.6765    1.8744 H   0  0
    6.4517   -3.6890    0.7919 H   0  0
    2.0252   -3.8670   -1.4499 H   0  0
    7.8058   -8.8414   -0.8395 H   0  0
    7.8049   -9.0870   -2.6203 H   0  0
    6.2891   -8.7539   -1.7587 H   0  0
    1.9582   -2.1062    4.9808 H   0  0
    2.1725   -0.5663    4.1264 H   0  0
    0.6519   -0.9084    4.9586 H   0  0
    0.3879   -3.8877    4.0181 H   0  0
   -0.4639   -3.5741    2.4957 H   0  0
   -0.9518   -2.7365    3.9813 H   0  0
    6.6358   -4.6976   -2.6431 H   0  0
    7.4858   -4.5980   -1.0925 H   0  0
    0.3909   -1.2265    2.4934 H   0  0
    2.7619   -2.9305    2.8269 H   0  0
  1  2  2  0
  1  4  1  0
  2  5  1  0
  3  4  2  0
  3  6  1  0
  4  7  1  0
  5  6  2  0
  5 12  1  0
  6 15  1  0
  7 14  1  0
  7 17  2  0
  8  9  1  0
  8 18  2  0
  8 20  1  0
 10 13  1  0
 11 13  1  0
 12 20  1  0
 13 14  1  0
 15 16  1  0
 15 19  2  0
  1 21  1  0
  2 22  1  0
  3 23  1  0
  9 24  1  0
  9 25  1  0
  9 26  1  0
 10 27  1  0
 10 28  1  0
 10 29  1  0
 11 30  1  0
 11 31  1  0
 11 32  1  0
 12 33  1  0
 12 34  1  0
 13 35  1  0
 14 36  1  0
M  CHG  2  15   1  16  -1
M  END
> <Name>
BR020236

$$$$
BR020237
  SciTegic05062102053D

 63 65  0  0  0  0            999 V2000
    3.3636    1.8477   -6.4021 C   0  0
    4.1002    1.8757   -7.5862 C   0  0
    4.4320    3.8939   -5.6889 C   0  0
    3.5294    2.8568   -5.4534 C   0  0
    5.0028    2.9128   -7.8217 C   0  0
    5.1687    3.9219   -6.8731 C   0  0
    2.7472    2.8273   -4.1958 C   0  0
    5.8491    4.0080  -11.1932 C   0  0
    0.5137    3.4611   -5.3018 C   0  0
    1.4081    8.1188   -6.7340 C   0  0
    0.5695    0.4508   -0.8280 C   0  0
    0.3777    7.5549   -5.7592 C   0  0
    2.3021    7.0257   -7.3134 C   0  0
    0.2701   -0.1425   -2.2018 C   0  0
    0.2206    1.9352   -0.7674 C   0  0
   -0.4405    6.4296   -6.3941 C   0  0
    1.4793    5.9019   -7.9449 C   0  0
    0.9598    0.6418   -3.3168 C   0  0
    0.9109    2.7218   -1.8804 C   0  0
    0.4353    5.3165   -6.9845 C   0  0
    0.5978    2.1300   -3.2590 C   0  0
    5.1769    5.0736  -12.0047 C   0  0
    5.7768    2.9129   -9.1005 C   0  0
    1.0957    4.5686   -5.9124 N   0  0
    1.3312    2.8600   -4.2912 N   0  0
    6.0838    4.9884   -7.0922 N   0  3
    7.2689    4.8589   -6.7042 O   0  5
    3.3714    2.7875   -3.1360 O   0  0
    6.8038    3.3495  -11.5833 O   0  0
   -0.5976    3.0264   -5.6150 O   0  0
    5.6782    6.0260   -7.6671 O   0  0
    5.2366    3.8938   -9.9756 O   0  0
    2.6628    1.0348   -6.2285 H   0  0
    3.9622    1.0854   -8.3196 H   0  0
    4.5590    4.6791   -4.9462 H   0  0
    0.8956    8.6458   -7.5480 H   0  0
    2.0300    8.8616   -6.2169 H   0  0
    0.0057   -0.0922   -0.0610 H   0  0
    1.6336    0.3170   -0.5975 H   0  0
    0.8840    7.1806   -4.8629 H   0  0
   -0.2966    8.3568   -5.4357 H   0  0
    2.9666    7.4596   -8.0701 H   0  0
    2.9407    6.6148   -6.5239 H   0  0
    0.5967   -1.1881   -2.2308 H   0  0
   -0.8136   -0.1410   -2.3720 H   0  0
   -0.8659    2.0590   -0.8534 H   0  0
    0.5125    2.3427    0.2071 H   0  0
   -1.1241    6.0049   -5.6383 H   0  0
   -1.0914    6.8507   -7.1789 H   0  0
    0.9817    6.2810   -8.8534 H   0  0
    2.1581    5.1026   -8.2901 H   0  0
    2.0474    0.5175   -3.2326 H   0  0
    0.6740    0.2225   -4.2892 H   0  0
    0.5908    3.7702   -1.8397 H   0  0
    1.9956    2.7214   -1.7103 H   0  0
   -0.1881    4.5992   -7.5122 H   0  0
   -0.4576    2.2604   -3.4838 H   0  0
    4.3677    4.6357  -12.5943 H   0  0
    5.9076    5.5610  -12.6550 H   0  0
    4.7519    5.8261  -11.3341 H   0  0
    6.8356    3.1415   -8.9242 H   0  0
    5.7264    1.9326   -9.5910 H   0  0
    2.0133    4.8694   -5.6026 H   0  0
  1  2  2  0
  1  4  1  0
  2  5  1  0
  3  4  2  0
  3  6  1  0
  4  7  1  0
  5  6  2  0
  5 23  1  0
  6 26  1  0
  7 25  1  0
  7 28  2  0
  8 22  1  0
  8 29  2  0
  8 32  1  0
  9 24  1  0
  9 25  1  0
  9 30  2  0
 10 12  1  0
 10 13  1  0
 11 14  1  0
 11 15  1  0
 12 16  1  0
 13 17  1  0
 14 18  1  0
 15 19  1  0
 16 20  1  0
 17 20  1  0
 18 21  1  0
 19 21  1  0
 20 24  1  0
 21 25  1  0
 23 32  1  0
 26 27  1  0
 26 31  2  0
  1 33  1  0
  2 34  1  0
  3 35  1  0
 10 36  1  0
 10 37  1  0
 11 38  1  0
 11 39  1  0
 12 40  1  0
 12 41  1  0
 13 42  1  0
 13 43  1  0
 14 44  1  0
 14 45  1  0
 15 46  1  0
 15 47  1  0
 16 48  1  0
 16 49  1  0
 17 50  1  0
 17 51  1  0
 18 52  1  0
 18 53  1  0
 19 54  1  0
 19 55  1  0
 20 56  1  0
 21 57  1  0
 22 58  1  0
 22 59  1  0
 22 60  1  0
 23 61  1  0
 23 62  1  0
 24 63  1  0
M  CHG  2  26   1  27  -1
M  END
> <Name>
BR020237

$$$$
BR020238
  SciTegic05062102053D

 45 46  0  0  1  0            999 V2000
    0.3579    3.7789   -4.7964 C   0  0
    0.8688    4.2480   -6.0066 C   0  0
    1.1698    1.5627   -5.3125 C   0  0
    0.5084    2.4363   -4.4493 C   0  0
    1.5302    3.3744   -6.8698 C   0  0
    1.6807    2.0318   -6.5228 C   0  0
   -0.0356    1.9365   -3.1604 C   0  0
    1.2721    1.4799    2.3992 C   0  0  1  0  0  0
    0.0776    1.7492    1.4817 C   0  0  1  0  0  0
    2.2936    2.6109    2.2969 C   0  0  2  0  0  0
    0.5380    2.1106    0.0630 C   0  0  1  0  0  0
    2.6466    2.9235    0.8418 C   0  0  2  0  0  0
    4.1269    2.3909   -0.9033 C   0  0
    2.0654    3.9089   -8.1591 C   0  0
   -0.6270    2.5360   -0.8266 C   0  0
   -0.1464    2.8685   -2.1255 N   0  0
    2.3509    1.1234   -7.3880 N   0  3
    1.6836    0.5028   -8.2490 O   0  5
   -0.3378    0.7506   -3.0562 O   0  0
    3.5890    0.9707   -7.2641 O   0  0
    1.4640    3.2028    0.0898 O   0  0
    0.7952    1.4010    3.7445 O   0  0
   -0.7323    0.5762    1.4557 O   0  0
    3.4646    2.2558    3.0236 O   0  0
    3.4414    1.9036    0.2397 O   0  0
    3.6501    4.9793   -7.8082 Br  0  0
   -0.1559    4.4683   -4.1309 H   0  0
    0.7477    5.2964   -6.2667 H   0  0
    1.2847    0.5159   -5.0384 H   0  0
    1.7278    0.5100    2.1734 H   0  0
   -0.5237    2.5607    1.9114 H   0  0
    1.8718    3.5047    2.7722 H   0  0
    1.0133    1.2438   -0.4147 H   0  0
    3.2632    3.8525    0.8228 H   0  0
    4.7251    1.5876   -1.3403 H   0  0
    4.7721    3.2244   -0.6145 H   0  0
    3.3944    2.7368   -1.6365 H   0  0
    1.3435    4.5551   -8.6685 H   0  0
    2.3597    3.1091   -8.8462 H   0  0
   -1.1016    3.4037   -0.3871 H   0  0
   -1.3291    1.7165   -0.9037 H   0  0
    0.1894    3.8230   -2.2859 H   0  0
    0.3833    2.2561    3.9383 H   0  0
   -0.1730   -0.1378    1.1125 H   0  0
    4.0835    2.9975    2.9329 H   0  0
  1  2  2  0
  1  4  1  0
  2  5  1  0
  3  4  2  0
  3  6  1  0
  4  7  1  0
  5  6  2  0
  5 14  1  0
  6 17  1  0
  7 16  1  0
  7 19  2  0
  8  9  1  0
  8 10  1  0
  8 22  1  0
  9 11  1  0
  9 23  1  0
 10 12  1  0
 10 24  1  0
 11 15  1  0
 11 21  1  0
 12 21  1  0
 12 25  1  0
 13 25  1  0
 14 26  1  0
 15 16  1  0
 17 18  1  0
 17 20  2  0
  1 27  1  0
  2 28  1  0
  3 29  1  0
  8 30  1  0
  9 31  1  0
 10 32  1  0
 11 33  1  0
 12 34  1  0
 13 35  1  0
 13 36  1  0
 13 37  1  0
 14 38  1  0
 14 39  1  0
 15 40  1  0
 15 41  1  0
 16 42  1  0
 22 43  1  0
 23 44  1  0
 24 45  1  0
M  CHG  2  17   1  18  -1
M  END
> <Name>
BR020238

$$$$
BR020239
  SciTegic05062102053D

 51 52  0  0  1  0            999 V2000
    0.4231    3.8804   -4.7463 C   0  0
    0.9686    4.3307   -5.9485 C   0  0
    0.6813    1.5947   -5.4851 C   0  0
    0.2795    2.5124   -4.5146 C   0  0
    1.3705    3.4129   -6.9190 C   0  0
    1.2269    2.0449   -6.6873 C   0  0
   -0.3015    2.0326   -3.2342 C   0  0
    4.0283    4.1582   -9.2987 C   0  0
    1.1340    0.7954    2.1728 C   0  0  1  0  0  0
   -0.0102    1.4065    1.3615 C   0  0  1  0  0  0
    2.3807    1.6740    2.0893 C   0  0  2  0  0  0
    0.4516    1.7824   -0.0530 C   0  0  1  0  0  0
    2.7252    2.0298    0.6421 C   0  0  2  0  0  0
    5.4946    3.8882   -9.1467 C   0  0
    3.9586    1.3395   -1.2347 C   0  0
    1.9508    3.9284   -8.1965 C   0  0
   -0.6270    2.5360   -0.8266 C   0  0
   -0.1464    2.8685   -2.1255 N   0  0
    1.6293    1.0916   -7.6632 N   0  3
    0.7971    0.7162   -8.5224 O   0  5
   -0.8612    0.9398   -3.2015 O   0  0
    3.5270    4.6847  -10.2829 O   0  0
    2.8043    0.6555   -7.6352 O   0  0
    1.6028    2.6331   -0.0047 O   0  0
    0.7172    0.7040    3.5372 O   0  0
   -1.0669    0.4516    1.3000 O   0  0
    3.4733    1.0021    2.7059 O   0  0
    3.3583    3.7314   -8.1854 O   0  0
    3.2359    0.9166   -0.0890 O   0  0
    0.1130    4.6042   -3.9966 H   0  0
    1.0778    5.3987   -6.1184 H   0  0
    0.5672    0.5283   -5.3008 H   0  0
    1.3447   -0.2273    1.8429 H   0  0
   -0.3889    2.2897    1.8920 H   0  0
    2.1976    2.5928    2.6593 H   0  0
    0.6927    0.8781   -0.6269 H   0  0
    3.5360    2.7953    0.6531 H   0  0
    5.9831    4.7462   -8.6783 H   0  0
    5.9366    3.6790  -10.1241 H   0  0
    5.6377    3.0131   -8.5061 H   0  0
    4.3357    0.4656   -1.7716 H   0  0
    4.7904    1.9781   -0.9267 H   0  0
    3.2900    1.9051   -1.8880 H   0  0
    1.5279    3.4065   -9.0643 H   0  0
    1.7428    4.9989   -8.3193 H   0  0
   -0.8690    3.4445   -0.2906 H   0  0
   -1.5007    1.9046   -0.9190 H   0  0
    0.3904    3.7342   -2.2343 H   0  0
    0.5214    1.6085    3.8236 H   0  0
   -0.7028   -0.3354    0.8659 H   0  0
    4.2401    1.5917    2.6310 H   0  0
  1  2  2  0
  1  4  1  0
  2  5  1  0
  3  4  2  0
  3  6  1  0
  4  7  1  0
  5  6  2  0
  5 16  1  0
  6 19  1  0
  7 18  1  0
  7 21  2  0
  8 14  1  0
  8 22  2  0
  8 28  1  0
  9 10  1  0
  9 11  1  0
  9 25  1  0
 10 12  1  0
 10 26  1  0
 11 13  1  0
 11 27  1  0
 12 17  1  0
 12 24  1  0
 13 24  1  0
 13 29  1  0
 15 29  1  0
 16 28  1  0
 17 18  1  0
 19 20  1  0
 19 23  2  0
  1 30  1  0
  2 31  1  0
  3 32  1  0
  9 33  1  0
 10 34  1  0
 11 35  1  0
 12 36  1  0
 13 37  1  0
 14 38  1  0
 14 39  1  0
 14 40  1  0
 15 41  1  0
 15 42  1  0
 15 43  1  0
 16 44  1  0
 16 45  1  0
 17 46  1  0
 17 47  1  0
 18 48  1  0
 25 49  1  0
 26 50  1  0
 27 51  1  0
M  CHG  2  19   1  20  -1
M  END
> <Name>
BR020239

$$$$
BR020240
  SciTegic05062102053D

 40 41  0  0  0  0            999 V2000
    1.3142   -4.5557   -0.4524 C   0  0
    1.8951   -5.8236   -0.4261 C   0  0
    3.3903   -3.5885    0.3167 C   0  0
    2.0619   -3.4382   -0.0811 C   0  0
    3.2236   -5.9740   -0.0284 C   0  0
    3.9712   -4.8564    0.3430 C   0  0
    1.4548   -2.1125   -0.1085 C   0  0
    5.3038   -8.7108   -1.2388 C   0  0
    0.9639   -0.0424   -1.3941 C   0  0
    2.3087   -1.7890   -2.5004 C   0  0
    0.0728    0.0706   -2.6224 C   0  0
    1.4307   -1.7078   -3.7392 C   0  0
    6.1844   -8.7233   -2.4513 C   0  0
    3.8157   -7.3464   -0.0109 C   0  0
    1.5566   -1.3796   -1.3047 N   0  0
    5.3271   -4.9867    0.7525 N   0  3
    0.8572   -0.3280   -3.8329 N   0  3
    5.5780   -5.1698    1.9671 O   0  5
    0.8788   -1.6744    0.8889 O   0  0
    5.1722   -9.6597   -0.4777 O   0  0
    6.2307   -4.9148   -0.1134 O   0  0
    4.6859   -7.4959   -1.1245 O   0  0
    0.2780   -4.4497   -0.7639 H   0  0
    1.3043   -6.6877   -0.7190 H   0  0
    3.9701   -2.7143    0.6062 H   0  0
    1.7887    0.6784   -1.4449 H   0  0
    0.3850    0.1830   -0.4929 H   0  0
    2.7024   -2.8033   -2.3986 H   0  0
    3.1682   -1.1135   -2.5893 H   0  0
   -0.7912   -0.5998   -2.5664 H   0  0
   -0.2693    1.0968   -2.7832 H   0  0
    2.0024   -1.8817   -4.6551 H   0  0
    0.5866   -2.4038   -3.6939 H   0  0
    5.6173   -9.0720   -3.3180 H   0  0
    7.0509   -9.3654   -2.2739 H   0  0
    6.5393   -7.7083   -2.6523 H   0  0
    4.3868   -7.5211    0.9097 H   0  0
    3.0328   -8.1133   -0.0662 H   0  0
    0.2535   -0.2670   -4.6643 H   0  0
    1.6163    0.3500   -3.9890 H   0  0
  1  2  2  0
  1  4  1  0
  2  5  1  0
  3  4  2  0
  3  6  1  0
  4  7  1  0
  5  6  2  0
  5 14  1  0
  6 16  1  0
  7 15  1  0
  7 19  2  0
  8 13  1  0
  8 20  2  0
  8 22  1  0
  9 11  1  0
  9 15  1  0
 10 12  1  0
 10 15  1  0
 11 17  1  0
 12 17  1  0
 14 22  1  0
 16 18  1  0
 16 21  2  0
  1 23  1  0
  2 24  1  0
  3 25  1  0
  9 26  1  0
  9 27  1  0
 10 28  1  0
 10 29  1  0
 11 30  1  0
 11 31  1  0
 12 32  1  0
 12 33  1  0
 13 34  1  0
 13 35  1  0
 13 36  1  0
 14 37  1  0
 14 38  1  0
 17 39  1  0
 17 40  1  0
M  CHG  3  16   1  17   1  18  -1
M  END
> <Name>
BR020240

$$$$
BR020241
  SciTegic05062102053D

 17 17  0  0  0  0            999 V2000
    1.8851   -1.0363   -0.1124 C   0  0
    2.8783   -1.6520    2.0022 C   0  0
    0.8066   -0.4630    0.5610 C   0  0
    1.7997   -1.0786    2.6757 C   0  0
    2.9210   -1.6309    0.6081 C   0  0
    0.7638   -0.4841    1.9551 C   0  0
    4.0584   -2.2362   -0.1030 C   0  0
   -0.3884    0.1316    2.6741 C   0  0
    5.0023   -2.7786    0.5853 O   0  5
    4.0730   -2.2035   -1.3905 O   0  0
    0.1709    1.8101    3.4832 Br  0  0
    1.9086   -1.0147   -1.1989 H   0  0
    3.6804   -2.1131    2.5728 H   0  0
    0.0042   -0.0024   -0.0091 H   0  0
    1.7748   -1.0998    3.7620 H   0  0
   -0.7631   -0.5068    3.4822 H   0  0
   -1.2235    0.3603    2.0019 H   0  0
  1  3  2  0
  1  5  1  0
  2  4  1  0
  2  5  2  0
  3  6  1  0
  4  6  2  0
  5  7  1  0
  6  8  1  0
  7  9  1  0
  7 10  2  0
  8 11  1  0
  1 12  1  0
  2 13  1  0
  3 14  1  0
  4 15  1  0
  8 16  1  0
  8 17  1  0
M  CHG  1   9  -1
M  END
> <Name>
BR020241

$$$$
BR020242
  SciTegic05062102053D

 21 21  0  0  0  0            999 V2000
    1.8851   -1.0363   -0.1124 C   0  0
    2.8783   -1.6520    2.0022 C   0  0
    0.8066   -0.4630    0.5610 C   0  0
    1.7997   -1.0786    2.6757 C   0  0
    2.9210   -1.6309    0.6081 C   0  0
    0.7638   -0.4841    1.9551 C   0  0
    4.0464   -2.2285   -0.0930 C   0  0
    6.1162   -3.3764    0.2070 C   0  0
   -0.3892    0.1300    2.6748 C   0  0
    4.1692   -2.2562   -1.3247 O   0  0
    4.9583   -2.7582    0.7786 O   0  0
    0.1683    1.8090    3.4839 Br  0  0
    1.9089   -1.0145   -1.1989 H   0  0
    3.6797   -2.1125    2.5740 H   0  0
    0.0041   -0.0017   -0.0084 H   0  0
    1.7748   -1.0992    3.7621 H   0  0
    6.7591   -3.7558    1.0050 H   0  0
    6.6598   -2.6456   -0.3970 H   0  0
    5.7988   -4.2070   -0.4280 H   0  0
   -0.7625   -0.5092    3.4828 H   0  0
   -1.2247    0.3575    2.0028 H   0  0
  1  3  2  0
  1  5  1  0
  2  4  1  0
  2  5  2  0
  3  6  1  0
  4  6  2  0
  5  7  1  0
  6  9  1  0
  7 10  2  0
  7 11  1  0
  8 11  1  0
  9 12  1  0
  1 13  1  0
  2 14  1  0
  3 15  1  0
  4 16  1  0
  8 17  1  0
  8 18  1  0
  8 19  1  0
  9 20  1  0
  9 21  1  0
M  END
> <Name>
BR020242

$$$$
BR020243
  SciTegic05062102053D

 32 33  0  0  0  0            999 V2000
    7.9749    0.2089   -3.3259 C   0  0
    7.0900   -0.8229   -3.6388 C   0  0
    8.3945    0.3923   -2.0084 C   0  0
    1.7152   -1.4178   -0.0600 C   0  0
    3.0483   -1.2701    1.9495 C   0  0
    6.6246   -1.6713   -2.6342 C   0  0
    7.9291   -0.4560   -1.0037 C   0  0
    0.6367   -0.8441    0.6133 C   0  0
    1.9698   -0.6964    2.6228 C   0  0
    2.9210   -1.6309    0.6081 C   0  0
    7.0441   -1.4878   -1.3166 C   0  0
    0.7640   -0.4834    1.9546 C   0  0
    4.0464   -2.2285   -0.0930 C   0  0
    6.5433   -2.4004   -0.2346 C   0  0
   -0.3893    0.1310    2.6738 C   0  0
    5.3273   -1.9060    0.3700 N   0  0
    3.8573   -2.9734   -1.0710 O   0  0
   -0.0599    2.0313    2.9282 Br  0  0
    8.3382    0.8685   -4.1086 H   0  0
    6.7640   -0.9666   -4.6649 H   0  0
    9.0843    1.1948   -1.7646 H   0  0
    1.6057   -1.6953   -1.1052 H   0  0
    3.9830   -1.4315    2.4803 H   0  0
    5.9351   -2.4724   -2.8872 H   0  0
    8.2613   -0.3055    0.0201 H   0  0
   -0.2989   -0.6815    0.0849 H   0  0
    2.0779   -0.4179    3.6678 H   0  0
    6.3387   -3.3990   -0.6359 H   0  0
    7.2891   -2.5153    0.5590 H   0  0
   -0.5397   -0.3062    3.6674 H   0  0
   -1.3260    0.0384    2.1123 H   0  0
    5.4271   -1.2435    1.1321 H   0  0
  1  2  2  0
  1  3  1  0
  2  6  1  0
  3  7  2  0
  4  8  2  0
  4 10  1  0
  5  9  1  0
  5 10  2  0
  6 11  2  0
  7 11  1  0
  8 12  1  0
  9 12  2  0
 10 13  1  0
 11 14  1  0
 12 15  1  0
 13 16  1  0
 13 17  2  0
 14 16  1  0
 15 18  1  0
  1 19  1  0
  2 20  1  0
  3 21  1  0
  4 22  1  0
  5 23  1  0
  6 24  1  0
  7 25  1  0
  8 26  1  0
  9 27  1  0
 14 28  1  0
 14 29  1  0
 15 30  1  0
 15 31  1  0
 16 32  1  0
M  END
> <Name>
BR020243

$$$$
BR020244
  SciTegic05062102053D

 48 50  0  0  0  0            999 V2000
    8.7647    0.1795   -2.0333 C   0  0
   -1.2019    6.5287    3.5688 C   0  0
    7.8018   -0.5573   -2.7229 C   0  0
    8.9851   -0.0580   -0.6766 C   0  0
   -0.5890    5.7646    4.5618 C   0  0
   -1.8999    5.9011    2.5370 C   0  0
    1.8851   -1.0363   -0.1124 C   0  0
    2.8783   -1.6520    2.0022 C   0  0
    7.0592   -1.5315   -2.0557 C   0  0
    8.2426   -1.0322   -0.0094 C   0  0
   -0.6738    4.3729    4.5229 C   0  0
   -1.9847    4.5094    2.4980 C   0  0
    0.8066   -0.4630    0.5610 C   0  0
    1.7997   -1.0786    2.6757 C   0  0
    2.9210   -1.6309    0.6081 C   0  0
    7.2796   -1.7690   -0.6989 C   0  0
   -1.3717    3.7452    3.4910 C   0  0
    0.7638   -0.4841    1.9551 C   0  0
    4.0464   -2.2285   -0.0930 C   0  0
    6.4805   -2.8173    0.0199 C   0  0
   -1.4631    2.2483    3.4484 C   0  0
   -0.3892    0.1300    2.6748 C   0  0
    5.2674   -2.2765    0.5896 N   0  0
   -0.3530    1.6185    2.6871 N   0  3
    3.9131   -2.6528   -1.2546 O   0  0
    9.3437    0.9371   -2.5533 H   0  0
   -1.1369    7.6124    3.6000 H   0  0
    7.6307   -0.3733   -3.7795 H   0  0
    9.7355    0.5147   -0.1397 H   0  0
   -0.0464    6.2532    5.3659 H   0  0
   -2.3781    6.4957    1.7643 H   0  0
    1.9089   -1.0145   -1.1989 H   0  0
    3.6797   -2.1125    2.5740 H   0  0
    6.3109   -2.1006   -2.6010 H   0  0
    8.4211   -1.2102    1.0477 H   0  0
   -0.1929    3.7856    5.3007 H   0  0
   -2.5304    4.0290    1.6902 H   0  0
    0.0041   -0.0017   -0.0084 H   0  0
    1.7748   -1.0992    3.7621 H   0  0
    6.2006   -3.6259   -0.6641 H   0  0
    7.0614   -3.2654    0.8328 H   0  0
   -1.4351    1.8211    4.4565 H   0  0
   -2.3948    1.9223    2.9736 H   0  0
   -1.3477   -0.1509    2.2176 H   0  0
   -0.4241   -0.1859    3.7263 H   0  0
    5.3368   -1.8590    1.5120 H   0  0
   -0.3697    1.9620    1.7177 H   0  0
    0.5456    1.9287    3.0800 H   0  0
  1  3  2  0
  1  4  1  0
  2  5  1  0
  2  6  2  0
  3  9  1  0
  4 10  2  0
  5 11  2  0
  6 12  1  0
  7 13  2  0
  7 15  1  0
  8 14  1  0
  8 15  2  0
  9 16  2  0
 10 16  1  0
 11 17  1  0
 12 17  2  0
 13 18  1  0
 14 18  2  0
 15 19  1  0
 16 20  1  0
 17 21  1  0
 18 22  1  0
 19 23  1  0
 19 25  2  0
 20 23  1  0
 21 24  1  0
 22 24  1  0
  1 26  1  0
  2 27  1  0
  3 28  1  0
  4 29  1  0
  5 30  1  0
  6 31  1  0
  7 32  1  0
  8 33  1  0
  9 34  1  0
 10 35  1  0
 11 36  1  0
 12 37  1  0
 13 38  1  0
 14 39  1  0
 20 40  1  0
 20 41  1  0
 21 42  1  0
 21 43  1  0
 22 44  1  0
 22 45  1  0
 23 46  1  0
 24 47  1  0
 24 48  1  0
M  CHG  1  24   1
M  END
> <Name>
BR020244

$$$$
BR020245
  SciTegic05062102053D

 20 21  0  0  0  0            999 V2000
    4.0260   -2.2183   -0.0813 C   0  0
   -1.9234    0.9330    4.0030 C   0  0
    1.8851   -1.0363   -0.1124 C   0  0
    2.8783   -1.6520    2.0022 C   0  0
    0.8066   -0.4630    0.5610 C   0  0
    1.7997   -1.0786    2.6757 C   0  0
   -0.6841    0.2499    3.9788 C   0  0
   -2.2597    1.1609    2.6889 C   0  0
    2.9210   -1.6309    0.6081 C   0  0
    0.7638   -0.4841    1.9551 C   0  0
   -0.3515    0.1089    2.6516 C   0  0
    4.9235   -2.6955   -0.6414 N   0  0
   -1.3067    0.6616    1.8588 O   0  0
   -2.4993    1.2228    4.8699 H   0  0
    1.9045   -1.0120   -1.1994 H   0  0
    3.6781   -2.1117    2.5779 H   0  0
    0.0067   -0.0033   -0.0147 H   0  0
    1.7809   -1.1030    3.7627 H   0  0
   -0.1091   -0.0948    4.8268 H   0  0
   -3.0980    1.6392    2.2038 H   0  0
  1  9  1  0
  1 12  3  0
  2  7  1  0
  2  8  2  0
  3  5  2  0
  3  9  1  0
  4  6  1  0
  4  9  2  0
  5 10  1  0
  6 10  2  0
  7 11  2  0
  8 13  1  0
 10 11  1  0
 11 13  1  0
  2 14  1  0
  3 15  1  0
  4 16  1  0
  5 17  1  0
  6 18  1  0
  7 19  1  0
  8 20  1  0
M  END
> <Name>
BR020245

$$$$
BR020246
  SciTegic05062102053D

 21 22  0  0  0  0            999 V2000
    5.6069   -3.0520   -1.4391 C   0  0
    1.8851   -1.0363   -0.1124 C   0  0
    2.8783   -1.6520    2.0022 C   0  0
    0.8066   -0.4630    0.5610 C   0  0
    1.7997   -1.0786    2.6757 C   0  0
    4.3679   -2.3682   -1.4153 C   0  0
    5.9436   -3.2782   -0.1248 C   0  0
    2.9210   -1.6309    0.6081 C   0  0
    0.7638   -0.4841    1.9551 C   0  0
    4.0358   -2.2255   -0.0881 C   0  0
   -0.3342    0.0993    2.6405 N   0  3
   -1.2557    0.6288    1.9734 O   0  5
   -0.3534    0.0692    3.8948 O   0  0
    4.9911   -2.7776    0.7050 O   0  0
    6.1822   -3.3434   -2.3059 H   0  0
    1.9038   -1.0116   -1.1994 H   0  0
    3.6775   -2.1129    2.5780 H   0  0
    0.0054   -0.0035   -0.0128 H   0  0
    1.7777   -1.1032    3.7624 H   0  0
    3.7927   -2.0244   -2.2635 H   0  0
    6.7820   -3.7562    0.3606 H   0  0
  1  6  1  0
  1  7  2  0
  2  4  2  0
  2  8  1  0
  3  5  1  0
  3  8  2  0
  4  9  1  0
  5  9  2  0
  6 10  2  0
  7 14  1  0
  8 10  1  0
  9 11  1  0
 10 14  1  0
 11 12  1  0
 11 13  2  0
  1 15  1  0
  2 16  1  0
  3 17  1  0
  4 18  1  0
  5 19  1  0
  6 20  1  0
  7 21  1  0
M  CHG  2  11   1  12  -1
M  END
> <Name>
BR020246

$$$$
BR020247
  SciTegic05062102053D

 24 25  0  0  0  0            999 V2000
    5.6088   -3.0464   -1.4396 C   0  0
    1.8851   -1.0363   -0.1124 C   0  0
    2.8783   -1.6520    2.0022 C   0  0
    0.8066   -0.4630    0.5610 C   0  0
    1.7997   -1.0786    2.6757 C   0  0
    4.3692   -2.3637   -1.4154 C   0  0
    5.9452   -3.2741   -0.1255 C   0  0
    2.9210   -1.6309    0.6081 C   0  0
    0.7638   -0.4841    1.9551 C   0  0
    4.0363   -2.2232   -0.0882 C   0  0
   -0.0282    1.8355    3.0024 N   0  0
   -1.7335    0.2464    1.9014 O   0  0
   -0.6991   -0.3926    4.1081 O   0  0
    4.9918   -2.7756    0.7046 O   0  0
   -0.5859    0.2333    2.7980 S   0  0
    6.1849   -3.3359   -2.3065 H   0  0
    1.9041   -1.0118   -1.1994 H   0  0
    3.6782   -2.1115    2.5781 H   0  0
    0.0049   -0.0024   -0.0100 H   0  0
    1.7763   -1.1007    3.7620 H   0  0
    3.7941   -2.0192   -2.2634 H   0  0
    6.7837   -3.7520    0.3596 H   0  0
   -0.4686    2.5745    2.4409 H   0  0
    0.2391    2.1359    3.9477 H   0  0
  1  6  1  0
  1  7  2  0
  2  4  2  0
  2  8  1  0
  3  5  1  0
  3  8  2  0
  4  9  1  0
  5  9  2  0
  6 10  2  0
  7 14  1  0
  8 10  1  0
  9 15  1  0
 10 14  1  0
 11 15  1  0
 12 15  2  0
 13 15  2  0
  1 16  1  0
  2 17  1  0
  3 18  1  0
  4 19  1  0
  5 20  1  0
  6 21  1  0
  7 22  1  0
 11 23  1  0
 11 24  1  0
M  END
> <Name>
BR020247

$$$$
BR020248
  SciTegic05062102053D

 29 31  0  0  0  0            999 V2000
    1.8847   -1.0341   -0.1124 C   0  0
    0.5057   -5.5429    8.3110 C   0  0
    2.1629    0.1247    0.6124 C   0  0
    1.5639   -2.2152    0.5568 C   0  0
    0.7973   -4.3361    8.9468 C   0  0
    0.5230   -5.6195    6.9183 C   0  0
    2.1205    0.1024    2.0064 C   0  0
    1.5214   -2.2375    1.9508 C   0  0
    1.1061   -3.2059    8.1899 C   0  0
    0.8318   -4.4893    6.1614 C   0  0
    1.9701   -0.1584    5.0952 C   0  0
    1.7671   -0.8197    6.3300 C   0  0
    1.7997   -1.0786    2.6757 C   0  0
    1.1234   -3.2825    6.7972 C   0  0
    1.7549   -1.1012    4.1171 C   0  0
    1.4422   -2.1194    6.0184 C   0  0
    1.4325   -2.2992    4.6715 O   0  0
    1.9172   -1.0166   -1.1979 H   0  0
    0.2658   -6.4230    8.9004 H   0  0
    2.4129    1.0441    0.0910 H   0  0
    1.3462   -3.1173   -0.0076 H   0  0
    0.7836   -4.2766   10.0312 H   0  0
    0.2969   -6.5595    6.4233 H   0  0
    2.3373    1.0147    2.5570 H   0  0
    1.2708   -3.1663    2.4578 H   0  0
    1.3338   -2.2732    8.7004 H   0  0
    0.8400   -4.5651    5.0767 H   0  0
    2.2397    0.8772    4.9427 H   0  0
    1.8489   -0.3964    7.3212 H   0  0
  1  3  1  0
  1  4  2  0
  2  5  1  0
  2  6  2  0
  3  7  2  0
  4  8  1  0
  5  9  2  0
  6 10  1  0
  7 13  1  0
  8 13  2  0
  9 14  1  0
 10 14  2  0
 11 12  1  0
 11 15  2  0
 12 16  2  0
 13 15  1  0
 14 16  1  0
 15 17  1  0
 16 17  1  0
  1 18  1  0
  2 19  1  0
  3 20  1  0
  4 21  1  0
  5 22  1  0
  6 23  1  0
  7 24  1  0
  8 25  1  0
  9 26  1  0
 10 27  1  0
 11 28  1  0
 12 29  1  0
M  END
> <Name>
BR020248

$$$$
BR020249
  SciTegic05062102053D

 31 33  0  0  0  0            999 V2000
    4.0256   -2.2191   -0.0815 C   0  0
   -6.0374   -2.9718    6.7350 C   0  0
    2.7509   -0.2467    0.6016 C   0  0
    2.0124   -2.4421    1.2884 C   0  0
   -5.1415   -0.8363    5.9484 C   0  0
   -4.0117   -2.8915    5.3679 C   0  0
    1.6724    0.3268    1.2749 C   0  0
    0.9338   -1.8686    1.9618 C   0  0
   -4.1831   -0.1098    5.2419 C   0  0
   -3.0532   -2.1649    4.6614 C   0  0
   -0.7884    1.4006    2.8322 C   0  0
   -1.9580    1.3127    3.6244 C   0  0
    2.9209   -1.6312    0.6082 C   0  0
   -5.0558   -2.2272    6.0114 C   0  0
    0.7638   -0.4841    1.9551 C   0  0
   -3.1389   -0.7741    4.5984 C   0  0
   -0.3515    0.1089    2.6516 C   0  0
   -2.1525   -0.0264    3.8712 C   0  0
    4.9228   -2.6965   -0.6417 N   0  0
   -6.8347   -3.5765    7.3228 N   0  0
   -1.1775   -0.7670    3.2816 O   0  0
    3.4509    0.3984    0.0759 H   0  0
    2.1313   -3.5229    1.3028 H   0  0
   -5.9497   -0.3045    6.4449 H   0  0
   -3.9312   -3.9752    5.4078 H   0  0
    1.5533    1.4076    1.2605 H   0  0
    0.2342   -2.5142    2.4875 H   0  0
   -4.2635    0.9739    5.2020 H   0  0
   -2.2453   -2.6973    4.1649 H   0  0
   -0.3255    2.2968    2.4438 H   0  0
   -2.5783    2.1278    3.9697 H   0  0
  1 13  1  0
  1 19  3  0
  2 14  1  0
  2 20  3  0
  3  7  2  0
  3 13  1  0
  4  8  1  0
  4 13  2  0
  5  9  2  0
  5 14  1  0
  6 10  1  0
  6 14  2  0
  7 15  1  0
  8 15  2  0
  9 16  1  0
 10 16  2  0
 11 12  1  0
 11 17  2  0
 12 18  2  0
 15 17  1  0
 16 18  1  0
 17 21  1  0
 18 21  1  0
  3 22  1  0
  4 23  1  0
  5 24  1  0
  6 25  1  0
  7 26  1  0
  8 27  1  0
  9 28  1  0
 10 29  1  0
 11 30  1  0
 12 31  1  0
M  END
> <Name>
BR020249

$$$$
BR020250
  SciTegic05062102053D

 33 35  0  0  0  0            999 V2000
    2.8242   -0.2433    0.7139 C   0  0
    1.9389   -2.4437    1.1743 C   0  0
    6.4503   -5.8433   -1.6761 C   0  0
    4.4101   -6.2549   -0.4493 C   0  0
    1.7453    0.3313    1.3857 C   0  0
    0.8600   -1.8690    1.8461 C   0  0
    6.6337   -7.2172   -1.8322 C   0  0
    4.5934   -7.6289   -0.6054 C   0  0
    5.1368   -1.7190   -0.7387 C   0  0
    5.8607   -2.8379   -1.2156 C   0  0
    2.9210   -1.6309    0.6081 C   0  0
    5.3386   -5.3622   -0.9846 C   0  0
    0.7632   -0.4815    1.9518 C   0  0
    5.7052   -8.1100   -1.2969 C   0  0
    4.0358   -2.2255   -0.0881 C   0  0
    5.1505   -3.9483   -0.8222 C   0  0
   -0.3351    0.1035    2.6354 N   0  3
    5.8919   -9.5085   -1.4556 N   0  3
   -0.4033    1.3538    2.7190 O   0  5
    6.8990   -9.9205   -2.0809 O   0  5
   -1.2078   -0.6456    3.1372 O   0  0
    5.0451  -10.2945   -0.9661 O   0  0
    4.0368   -3.5836   -0.1344 O   0  0
    3.5817    0.4038    0.2782 H   0  0
    1.9996   -3.5269    1.0991 H   0  0
    7.1830   -5.1603   -2.0994 H   0  0
    3.5390   -5.8953    0.0936 H   0  0
    1.6816    1.4142    1.4602 H   0  0
    0.1005   -2.5136    2.2815 H   0  0
    7.5050   -7.5790   -2.3727 H   0  0
    3.8632   -8.3142   -0.1820 H   0  0
    5.3905   -0.6751   -0.8574 H   0  0
    6.7849   -2.8300   -1.7760 H   0  0
  1  5  2  0
  1 11  1  0
  2  6  1  0
  2 11  2  0
  3  7  1  0
  3 12  2  0
  4  8  2  0
  4 12  1  0
  5 13  1  0
  6 13  2  0
  7 14  2  0
  8 14  1  0
  9 10  1  0
  9 15  2  0
 10 16  2  0
 11 15  1  0
 12 16  1  0
 13 17  1  0
 14 18  1  0
 15 23  1  0
 16 23  1  0
 17 19  1  0
 17 21  2  0
 18 20  1  0
 18 22  2  0
  1 24  1  0
  2 25  1  0
  3 26  1  0
  4 27  1  0
  5 28  1  0
  6 29  1  0
  7 30  1  0
  8 31  1  0
  9 32  1  0
 10 33  1  0
M  CHG  4  17   1  18   1  19  -1  20  -1
M  END
> <Name>
BR020250

$$$$
BR020251
  SciTegic05062102053D

 35 37  0  0  0  0            999 V2000
    2.8210   -0.2434    0.7113 C   0  0
    1.9424   -2.4449    1.1785 C   0  0
    6.4584   -5.8382   -1.6724 C   0  0
    4.4199   -6.2532   -0.4439 C   0  0
    1.7424    0.3300    1.3846 C   0  0
    0.8638   -1.8716    1.8518 C   0  0
    6.6445   -7.2118   -1.8277 C   0  0
    4.6059   -7.6268   -0.5992 C   0  0
    5.1353   -1.7158   -0.7411 C   0  0
    5.8615   -2.8337   -1.2168 C   0  0
    2.9210   -1.6309    0.6081 C   0  0
    5.3461   -5.3589   -0.9804 C   0  0
    0.7638   -0.4841    1.9549 C   0  0
    5.7182   -8.1061   -1.2912 C   0  0
    4.0364   -2.2239   -0.0883 C   0  0
    5.1547   -3.9451   -0.8205 C   0  0
   -0.3896    0.1291    2.6744 C   0  0
    5.9175   -9.5747   -1.4569 C   0  0
    4.0408   -3.5820   -0.1320 O   0  0
   -0.3581    1.4946    2.6964 F   0  0
   -1.6031   -0.1902    2.1347 F   0  0
   -0.4579   -0.2563    3.9821 F   0  0
    7.0467   -9.8990   -2.1539 F   0  0
    6.0236  -10.2492   -0.2738 F   0  0
    4.8895  -10.1719   -2.1276 F   0  0
    3.5756    0.4047    0.2718 H   0  0
    2.0064   -3.5281    1.1069 H   0  0
    7.1895   -5.1538   -2.0963 H   0  0
    3.5476   -5.8951    0.0978 H   0  0
    1.6723    1.4119    1.4598 H   0  0
    0.1061   -2.5138    2.2930 H   0  0
    7.5141   -7.5764   -2.3680 H   0  0
    3.8790   -8.3161   -0.1777 H   0  0
    5.3862   -0.6714   -0.8620 H   0  0
    6.7850   -2.8244   -1.7783 H   0  0
  1  5  2  0
  1 11  1  0
  2  6  1  0
  2 11  2  0
  3  7  1  0
  3 12  2  0
  4  8  2  0
  4 12  1  0
  5 13  1  0
  6 13  2  0
  7 14  2  0
  8 14  1  0
  9 10  1  0
  9 15  2  0
 10 16  2  0
 11 15  1  0
 12 16  1  0
 13 17  1  0
 14 18  1  0
 15 19  1  0
 16 19  1  0
 17 20  1  0
 17 21  1  0
 17 22  1  0
 18 23  1  0
 18 24  1  0
 18 25  1  0
  1 26  1  0
  2 27  1  0
  3 28  1  0
  4 29  1  0
  5 30  1  0
  6 31  1  0
  7 32  1  0
  8 33  1  0
  9 34  1  0
 10 35  1  0
M  END
> <Name>
BR020251

$$$$
BR020252
  SciTegic05062102053D

 43 45  0  0  0  0            999 V2000
    2.8214   -0.2434    0.7117 C   0  0
    1.9419   -2.4448    1.1778 C   0  0
    6.4575   -5.8391   -1.6726 C   0  0
    4.4186   -6.2534   -0.4445 C   0  0
    1.7426    0.3301    1.3847 C   0  0
    0.8632   -1.8714    1.8509 C   0  0
    6.6431   -7.2128   -1.8279 C   0  0
    4.6042   -7.6271   -0.5998 C   0  0
    5.1357   -1.7163   -0.7406 C   0  0
    5.8616   -2.8343   -1.2164 C   0  0
    2.9210   -1.6309    0.6081 C   0  0
    5.3453   -5.3594   -0.9808 C   0  0
    0.7635   -0.4839    1.9544 C   0  0
    5.7164   -8.1068   -1.2916 C   0  0
    4.0364   -2.2241   -0.0882 C   0  0
    5.1543   -3.9456   -0.8205 C   0  0
   -1.3858   -0.5592    3.2578 C   0  0
    5.0868  -10.5218   -0.9830 C   0  0
   -2.3503    0.4229    3.8741 C   0  0
    5.6378  -11.8741   -1.3601 C   0  0
   -0.3155    0.0896    2.6276 N   0  0
    5.9020   -9.4808   -1.4469 N   0  0
   -1.5801   -1.7675    3.3422 O   0  0
    4.0418  -10.4243   -0.3478 O   0  0
    4.0404   -3.5823   -0.1322 O   0  0
    3.5767    0.4043    0.2727 H   0  0
    2.0057   -3.5280    1.1056 H   0  0
    7.1886   -5.1545   -2.0962 H   0  0
    3.5465   -5.8948    0.0972 H   0  0
    1.6746    1.4125    1.4589 H   0  0
    0.1063   -2.5162    2.2904 H   0  0
    7.5137   -7.5756   -2.3683 H   0  0
    3.8752   -8.3139   -0.1770 H   0  0
    5.3870   -0.6720   -0.8612 H   0  0
    6.7853   -2.8253   -1.7777 H   0  0
   -3.1212    0.6911    3.1461 H   0  0
   -1.8154    1.3286    4.1738 H   0  0
   -2.8192   -0.0192    4.7581 H   0  0
    6.3079  -12.2331   -0.5738 H   0  0
    6.1986  -11.7974   -2.2959 H   0  0
    4.8186  -12.5862   -1.4966 H   0  0
   -0.3328    1.1152    2.6708 H   0  0
    6.7385   -9.7720   -1.9660 H   0  0
  1  5  2  0
  1 11  1  0
  2  6  1  0
  2 11  2  0
  3  7  1  0
  3 12  2  0
  4  8  2  0
  4 12  1  0
  5 13  1  0
  6 13  2  0
  7 14  2  0
  8 14  1  0
  9 10  1  0
  9 15  2  0
 10 16  2  0
 11 15  1  0
 12 16  1  0
 13 21  1  0
 14 22  1  0
 15 25  1  0
 16 25  1  0
 17 19  1  0
 17 21  1  0
 17 23  2  0
 18 20  1  0
 18 22  1  0
 18 24  2  0
  1 26  1  0
  2 27  1  0
  3 28  1  0
  4 29  1  0
  5 30  1  0
  6 31  1  0
  7 32  1  0
  8 33  1  0
  9 34  1  0
 10 35  1  0
 19 36  1  0
 19 37  1  0
 19 38  1  0
 20 39  1  0
 20 40  1  0
 20 41  1  0
 21 42  1  0
 22 43  1  0
M  END
> <Name>
BR020252

$$$$
BR020253
  SciTegic05062102053D

 37 39  0  0  0  0            999 V2000
    2.8210   -0.2434    0.7112 C   0  0
    1.9425   -2.4449    1.1787 C   0  0
    6.4586   -5.8379   -1.6725 C   0  0
    4.4203   -6.2532   -0.4438 C   0  0
    1.7424    0.3300    1.3846 C   0  0
    0.8639   -1.8716    1.8521 C   0  0
    6.6449   -7.2115   -1.8278 C   0  0
    4.6064   -7.6268   -0.5991 C   0  0
    5.1352   -1.7157   -0.7413 C   0  0
    5.8615   -2.8335   -1.2169 C   0  0
    2.9210   -1.6309    0.6081 C   0  0
    5.3464   -5.3587   -0.9804 C   0  0
    0.7639   -0.4841    1.9551 C   0  0
    5.7188   -8.1060   -1.2912 C   0  0
    4.0364   -2.2238   -0.0883 C   0  0
    5.1548   -3.9450   -0.8205 C   0  0
   -1.2526   -0.8153    3.1716 C   0  0
    4.9152  -10.3041   -0.8690 C   0  0
    4.0409   -3.5820   -0.1320 O   0  0
   -0.2886    0.0754    2.6122 O   0  0
    5.9005   -9.4463   -1.4427 O   0  0
    3.5756    0.4047    0.2719 H   0  0
    2.0063   -3.5281    1.1070 H   0  0
    7.1895   -5.1535   -2.0966 H   0  0
    3.5481   -5.8953    0.0983 H   0  0
    1.6698    1.4115    1.4615 H   0  0
    0.1048   -2.5109    2.2945 H   0  0
    7.5133   -7.5789   -2.3678 H   0  0
    3.8816   -8.3187   -0.1789 H   0  0
    5.3860   -0.6713   -0.8623 H   0  0
    6.7850   -2.8242   -1.7786 H   0  0
   -2.0380   -0.2392    3.6668 H   0  0
   -0.7638   -1.4780    3.8903 H   0  0
   -1.6926   -1.4123    2.3693 H   0  0
    5.1810  -11.3462   -1.0626 H   0  0
    3.9378  -10.0795   -1.3033 H   0  0
    4.8803  -10.1338    0.2097 H   0  0
  1  5  2  0
  1 11  1  0
  2  6  1  0
  2 11  2  0
  3  7  1  0
  3 12  2  0
  4  8  2  0
  4 12  1  0
  5 13  1  0
  6 13  2  0
  7 14  2  0
  8 14  1  0
  9 10  1  0
  9 15  2  0
 10 16  2  0
 11 15  1  0
 12 16  1  0
 13 20  1  0
 14 21  1  0
 15 19  1  0
 16 19  1  0
 17 20  1  0
 18 21  1  0
  1 22  1  0
  2 23  1  0
  3 24  1  0
  4 25  1  0
  5 26  1  0
  6 27  1  0
  7 28  1  0
  8 29  1  0
  9 30  1  0
 10 31  1  0
 17 32  1  0
 17 33  1  0
 17 34  1  0
 18 35  1  0
 18 36  1  0
 18 37  1  0
M  END
> <Name>
BR020253

$$$$
BR020254
  SciTegic05062102053D

 45 47  0  0  0  0            999 V2000
    2.8217   -0.2434    0.7115 C   0  0
    6.4571   -5.8385   -1.6738 C   0  0
    1.7432    0.3304    1.3848 C   0  0
    6.6431   -7.2121   -1.8294 C   0  0
    5.1353   -1.7162   -0.7413 C   0  0
    5.8611   -2.8342   -1.2173 C   0  0
    1.9419   -2.4446    1.1782 C   0  0
    4.4188   -6.2536   -0.4451 C   0  0
    2.9210   -1.6309    0.6081 C   0  0
    5.3450   -5.3593   -0.9816 C   0  0
    0.7641   -0.4833    1.9548 C   0  0
    5.7169   -8.1065   -1.2929 C   0  0
    0.8635   -1.8708    1.8515 C   0  0
    4.6047   -7.6273   -0.6007 C   0  0
    4.0363   -2.2241   -0.0886 C   0  0
    5.1540   -3.9455   -0.8213 C   0  0
   -0.3115    1.5133    2.6708 C   0  0
    7.0708   -9.8531   -2.1716 C   0  0
    0.0901   -4.0836    2.2530 C   0  0
    2.5850   -7.9187    0.6206 C   0  0
    4.0403   -3.5822   -0.1326 O   0  0
   -0.2844    0.0886    2.6102 O   0  0
    5.9090   -9.4458   -1.4515 O   0  0
   -0.0863   -2.6764    2.4037 O   0  0
    3.6930   -8.4905   -0.0718 O   0  0
    3.5764    0.4047    0.2726 H   0  0
    7.1883   -5.1545   -2.0979 H   0  0
    1.6719    1.4119    1.4618 H   0  0
    7.5115   -7.5788   -2.3698 H   0  0
    5.3865   -0.6718   -0.8620 H   0  0
    6.7846   -2.8251   -1.7789 H   0  0
    2.0105   -3.5278    1.1024 H   0  0
    3.5484   -5.8894    0.0968 H   0  0
   -1.1983    1.8385    3.2202 H   0  0
   -0.3276    1.9217    1.6572 H   0  0
    0.5842    1.8642    3.1887 H   0  0
    7.1033  -10.9440   -2.2253 H   0  0
    7.9640   -9.4757   -1.6675 H   0  0
    7.0245   -9.4420   -3.1829 H   0  0
   -0.7358   -4.6092    2.7385 H   0  0
    1.0405   -4.3827    2.7019 H   0  0
    0.0991   -4.3287    1.1883 H   0  0
    1.9358   -8.7156    0.9917 H   0  0
    2.0283   -7.2663   -0.0567 H   0  0
    2.9571   -7.3326    1.4642 H   0  0
  1  3  2  0
  1  9  1  0
  2  4  1  0
  2 10  2  0
  3 11  1  0
  4 12  2  0
  5  6  1  0
  5 15  2  0
  6 16  2  0
  7  9  2  0
  7 13  1  0
  8 10  1  0
  8 14  2  0
  9 15  1  0
 10 16  1  0
 11 13  2  0
 11 22  1  0
 12 14  1  0
 12 23  1  0
 13 24  1  0
 14 25  1  0
 15 21  1  0
 16 21  1  0
 17 22  1  0
 18 23  1  0
 19 24  1  0
 20 25  1  0
  1 26  1  0
  2 27  1  0
  3 28  1  0
  4 29  1  0
  5 30  1  0
  6 31  1  0
  7 32  1  0
  8 33  1  0
 17 34  1  0
 17 35  1  0
 17 36  1  0
 18 37  1  0
 18 38  1  0
 18 39  1  0
 19 40  1  0
 19 41  1  0
 19 42  1  0
 20 43  1  0
 20 44  1  0
 20 45  1  0
M  END
> <Name>
BR020254

$$$$
BR020255
  SciTegic05062102053D

 53 55  0  0  0  0            999 V2000
   -0.3299    1.1936   -1.0807 C   0  0
   -1.6898    1.3029   -1.4574 C   0  0
    2.1110    0.0132    0.4297 C   0  0
    0.5375   -1.5337    1.4135 C   0  0
   -4.6970    0.5632   -1.4572 C   0  0
   -4.0972   -1.1601    0.1263 C   0  0
    0.8066   -0.4630    0.5610 C   0  0
   -3.7305   -0.0960   -0.6976 C   0  0
    3.1465   -0.5814    1.1508 C   0  0
    1.5729   -2.1283    2.1347 C   0  0
   -6.0303    0.1583   -1.3928 C   0  0
   -5.4305   -1.5650    0.1906 C   0  0
    2.8774   -1.6521    2.0034 C   0  0
   -6.3970   -0.9058   -0.5690 C   0  0
   -0.2643    0.1524   -0.1843 C   0  0
   -2.3582    0.3204   -0.7645 C   0  0
    4.8212    0.9299    1.9038 C   0  0
   -0.0622   -3.5985    3.0406 C   0  0
   -7.2102    0.3115   -3.4520 C   0  0
   -4.7272   -3.2248    1.7419 C   0  0
    4.5695   -3.3211    2.0857 C   0  0
   -8.5182   -0.6786    0.4820 C   0  0
   -1.4964   -0.3853    0.0138 O   0  0
    4.4162   -0.1074    1.0127 O   0  0
    1.2970   -3.1733    2.9640 O   0  0
   -6.9646    0.8112   -2.1390 O   0  0
   -5.7757   -2.6057    0.9992 O   0  0
    3.8896   -2.2334    2.7080 O   0  0
   -7.7003   -1.3013   -0.5058 O   0  0
    0.4959    1.8012   -1.4231 H   0  0
   -2.1234    2.0117   -2.1486 H   0  0
    2.3302    0.8477   -0.2331 H   0  0
   -0.4769   -1.9117    1.5223 H   0  0
   -4.4201    1.3943   -2.1024 H   0  0
   -3.3500   -1.6801    0.7221 H   0  0
    5.8533    1.2156    1.6865 H   0  0
    4.7388    0.5782    2.9353 H   0  0
    4.1687    1.7948    1.7626 H   0  0
   -0.1437   -4.4376    3.7358 H   0  0
   -0.4074   -3.8989    2.0481 H   0  0
   -0.6744   -2.7686    3.4014 H   0  0
   -7.9756    0.9217   -3.9377 H   0  0
   -7.5423   -0.7280   -3.3910 H   0  0
   -6.2849    0.3629   -4.0307 H   0  0
   -5.1380   -4.0385    2.3446 H   0  0
   -4.2502   -2.4835    2.3879 H   0  0
   -3.9881   -3.6277    1.0453 H   0  0
    5.3516   -3.6923    2.7525 H   0  0
    5.0087   -2.9859    1.1427 H   0  0
    3.8528   -4.1216    1.8873 H   0  0
   -9.5316   -1.0834    0.4251 H   0  0
   -8.5358    0.4012    0.3139 H   0  0
   -8.1009   -0.8847    1.4705 H   0  0
  1  2  1  0
  1 15  2  0
  2 16  2  0
  3  7  1  0
  3  9  2  0
  4  7  2  0
  4 10  1  0
  5  8  2  0
  5 11  1  0
  6  8  1  0
  6 12  2  0
  7 15  1  0
  8 16  1  0
  9 13  1  0
  9 24  1  0
 10 13  2  0
 10 25  1  0
 11 14  2  0
 11 26  1  0
 12 14  1  0
 12 27  1  0
 13 28  1  0
 14 29  1  0
 15 23  1  0
 16 23  1  0
 17 24  1  0
 18 25  1  0
 19 26  1  0
 20 27  1  0
 21 28  1  0
 22 29  1  0
  1 30  1  0
  2 31  1  0
  3 32  1  0
  4 33  1  0
  5 34  1  0
  6 35  1  0
 17 36  1  0
 17 37  1  0
 17 38  1  0
 18 39  1  0
 18 40  1  0
 18 41  1  0
 19 42  1  0
 19 43  1  0
 19 44  1  0
 20 45  1  0
 20 46  1  0
 20 47  1  0
 21 48  1  0
 21 49  1  0
 21 50  1  0
 22 51  1  0
 22 52  1  0
 22 53  1  0
M  END
> <Name>
BR020255

$$$$
BR020256
  SciTegic05062102053D

 33 34  0  0  0  0            999 V2000
   -3.1768    5.0241    3.4049 C   0  0
   -3.6792    3.7232    3.4322 C   0  0
   -2.0227    5.3109    2.6759 C   0  0
   -3.9972   -2.5870   -1.2460 C   0  0
   -3.7348   -3.7237   -2.0025 C   0  0
   -3.0275    2.7090    2.7306 C   0  0
   -1.3709    4.2967    1.9743 C   0  0
   -2.9473   -1.7697   -0.8424 C   0  0
   -2.4157   -3.9968   -2.3267 C   0  0
   -1.8733    2.9957    2.0016 C   0  0
   -1.6634   -2.1303   -1.2183 C   0  0
   -0.4996   -1.2930   -0.8143 C   0  0
    0.1215    1.7255    0.9689 C   0  0
    0.8794   -1.7407   -1.2567 C   0  0
   -1.3694   -3.2266   -1.9528 N   0  0
   -0.7364   -0.2284   -0.1066 N   0  0
   -1.2113    1.9652    1.2887 N   0  0
    0.3100    0.5581    0.2347 N   0  0
    1.4905    2.6091    1.3592 S   0  0
   -3.6845    5.8142    3.9504 H   0  0
   -4.5783    3.4997    3.9989 H   0  0
   -1.6323    6.3243    2.6541 H   0  0
   -5.0180   -2.3385   -0.9714 H   0  0
   -4.5372   -4.3757   -2.3279 H   0  0
   -3.4283    1.6988    2.7590 H   0  0
   -0.4722    4.5320    1.4096 H   0  0
   -3.1397   -0.8794   -0.2530 H   0  0
   -2.1583   -4.8704   -2.9164 H   0  0
    1.1126   -1.2949   -2.2277 H   0  0
    1.6253   -1.4269   -0.5201 H   0  0
    0.9539   -2.8278   -1.3372 H   0  0
   -1.8363    1.2310    0.9613 H   0  0
    1.2396    0.2946   -0.0699 H   0  0
  1  2  2  0
  1  3  1  0
  2  6  1  0
  3  7  2  0
  4  5  1  0
  4  8  2  0
  5  9  2  0
  6 10  2  0
  7 10  1  0
  8 11  1  0
  9 15  1  0
 10 17  1  0
 11 12  1  0
 11 15  2  0
 12 14  1  0
 12 16  2  0
 13 17  1  0
 13 18  1  0
 13 19  2  0
 16 18  1  0
  1 20  1  0
  2 21  1  0
  3 22  1  0
  4 23  1  0
  5 24  1  0
  6 25  1  0
  7 26  1  0
  8 27  1  0
  9 28  1  0
 14 29  1  0
 14 30  1  0
 14 31  1  0
 17 32  1  0
 18 33  1  0
M  END
> <Name>
BR020256

$$$$
BR020257
  SciTegic05062102053D

 29 28  0  0  0  0            999 V2000
   -0.0246    0.5796   -0.4701 C   0  0
   -0.1483    2.1374    2.6404 C   0  0
   -1.1856    1.3571   -2.5436 C   0  0
    4.3586   -1.8805    0.0371 C   0  0
   -0.7982    0.1513   -1.7066 C   0  0
    1.4896    0.6702   -0.5986 C   0  0
    3.7037   -0.5609   -0.3410 C   0  0
    2.1794   -0.6429   -0.2322 C   0  0
   -0.5343    0.8874    0.6848 N   0  0
    0.8203    2.4097    3.5890 N   0  0
    0.3023    1.2477    1.6788 N   0  0
   -1.2709    2.6395    2.6681 O   0  0
   -1.8187    2.0439   -1.9722 H   0  0
   -0.2917    1.9017   -2.8627 H   0  0
   -1.7426    1.0622   -3.4384 H   0  0
    3.9900   -2.6849   -0.6072 H   0  0
    4.1345   -2.1471    1.0748 H   0  0
    5.4459   -1.8253   -0.0768 H   0  0
   -0.1671   -0.5131   -2.3067 H   0  0
   -1.6790   -0.4325   -1.4242 H   0  0
    1.7247    0.9307   -1.6368 H   0  0
    1.8610    1.4870    0.0310 H   0  0
    4.0895    0.2249    0.3176 H   0  0
    3.9911   -0.2982   -1.3656 H   0  0
    1.8149   -1.4246   -0.9099 H   0  0
    1.9029   -0.9476    0.7839 H   0  0
    1.7388    1.9816    3.5408 H   0  0
    0.6449    3.0442    4.3608 H   0  0
    1.2424    0.8750    1.7216 H   0  0
  1  5  1  0
  1  6  1  0
  1  9  2  0
  2 10  1  0
  2 11  1  0
  2 12  2  0
  3  5  1  0
  4  7  1  0
  6  8  1  0
  7  8  1  0
  9 11  1  0
  3 13  1  0
  3 14  1  0
  3 15  1  0
  4 16  1  0
  4 17  1  0
  4 18  1  0
  5 19  1  0
  5 20  1  0
  6 21  1  0
  6 22  1  0
  7 23  1  0
  7 24  1  0
  8 25  1  0
  8 26  1  0
 10 27  1  0
 10 28  1  0
 11 29  1  0
M  END
> <Name>
BR020257

$$$$
BR020258
  SciTegic05062102053D

 30 29  0  0  0  0            999 V2000
    2.5573    0.4986    2.8680 C   0  0
    2.6274    1.7461    3.3701 C   0  0
   -0.5075   -1.0790    1.1257 C   0  0
   -2.5882    1.6969    0.9161 C   0  0
    3.5259    2.1815    4.4927 C   0  0
    1.7752    2.8466    2.7959 C   0  0
   -0.3021   -2.5259    0.7413 C   0  0
    1.6840   -0.0026    1.7503 C   0  0
    0.3426   -0.5284    2.2598 C   0  0
   -1.3325   -0.2595    0.5467 N   0  0
   -2.4931    2.9736    1.4388 N   0  0
   -1.3928    1.0041    1.0164 N   0  0
   -3.6242    1.2508    0.4250 O   0  0
    3.2056   -0.2633    3.2997 H   0  0
    4.4871    2.5225    4.0940 H   0  0
    3.1130    2.9924    5.0955 H   0  0
    3.7126    1.3414    5.1703 H   0  0
    0.8157    2.8956    3.3213 H   0  0
    2.2804    3.8122    2.9026 H   0  0
    1.5633    2.6995    1.7316 H   0  0
   -0.9730   -3.1621    1.3250 H   0  0
    0.7272   -2.8346    0.9427 H   0  0
   -0.5001   -2.6568   -0.3260 H   0  0
    2.2188   -0.8240    1.2573 H   0  0
    1.5293    0.7565    0.9782 H   0  0
   -0.2138    0.2595    2.7817 H   0  0
    0.5112   -1.3359    2.9815 H   0  0
   -1.6281    3.3208    1.8390 H   0  0
   -3.2885    3.6033    1.4371 H   0  0
   -0.5787    1.4382    1.4346 H   0  0
  1  2  2  0
  1  8  1  0
  2  5  1  0
  2  6  1  0
  3  7  1  0
  3  9  1  0
  3 10  2  0
  4 11  1  0
  4 12  1  0
  4 13  2  0
  8  9  1  0
 10 12  1  0
  1 14  1  0
  5 15  1  0
  5 16  1  0
  5 17  1  0
  6 18  1  0
  6 19  1  0
  6 20  1  0
  7 21  1  0
  7 22  1  0
  7 23  1  0
  8 24  1  0
  8 25  1  0
  9 26  1  0
  9 27  1  0
 11 28  1  0
 11 29  1  0
 12 30  1  0
M  END
> <Name>
BR020258

$$$$
BR020259
  SciTegic05062102053D

 30 29  0  0  0  0            999 V2000
    3.5974   -0.2260    0.9250 C   0  0
    3.9544    0.5437    1.9707 C   0  0
    0.6124   -0.5238   -1.5043 C   0  0
   -0.5756    2.7276   -1.1427 C   0  0
    5.3664    0.8232    2.4009 C   0  0
    2.9037    1.1914    2.8329 C   0  0
    0.3825   -1.8990   -2.0862 C   0  0
    2.2090   -0.5458    0.4417 C   0  0
    2.0184   -0.1893   -1.0323 C   0  0
   -0.3019    0.3841   -1.3414 N   0  0
   -1.6059    2.6235   -2.0381 N   0  0
    0.0738    1.5664   -0.8042 N   0  0
   -0.1259    4.2010   -0.4940 S   0  0
    4.3892   -0.6910    0.3386 H   0  0
    5.7438    1.7172    1.8937 H   0  0
    5.4007    0.9999    3.4814 H   0  0
    6.0591    0.0068    2.1885 H   0  0
    2.6314    0.5283    3.6606 H   0  0
    1.9886    1.4197    2.2762 H   0  0
    3.2817    2.1310    3.2491 H   0  0
    0.0969   -2.5936   -1.2915 H   0  0
   -0.4209   -1.8734   -2.8271 H   0  0
    1.2941   -2.2497   -2.5775 H   0  0
    1.4408   -0.0658    1.0548 H   0  0
    2.0573   -1.6254    0.5652 H   0  0
    2.7291   -0.7544   -1.6460 H   0  0
    2.2165    0.8751   -1.2073 H   0  0
   -1.8752    1.7286   -2.4330 H   0  0
   -2.1318    3.4380   -2.3365 H   0  0
    0.8491    1.5835   -0.1520 H   0  0
  1  2  2  0
  1  8  1  0
  2  5  1  0
  2  6  1  0
  3  7  1  0
  3  9  1  0
  3 10  2  0
  4 11  1  0
  4 12  1  0
  4 13  2  0
  8  9  1  0
 10 12  1  0
  1 14  1  0
  5 15  1  0
  5 16  1  0
  5 17  1  0
  6 18  1  0
  6 19  1  0
  6 20  1  0
  7 21  1  0
  7 22  1  0
  7 23  1  0
  8 24  1  0
  8 25  1  0
  9 26  1  0
  9 27  1  0
 11 28  1  0
 11 29  1  0
 12 30  1  0
M  END
> <Name>
BR020259

$$$$
BR020260
  SciTegic05062102053D

 36 35  0  0  1  0            999 V2000
   -1.0305   -0.7101   -1.7119 C   0  0
   -1.9601   -1.3113   -0.9451 C   0  0
    1.1759    0.6494   -0.1348 C   0  0
    1.4848   -0.6131    3.1520 C   0  0
   -3.3724   -0.7892   -0.9162 C   0  0
   -1.7263   -2.5030   -0.0605 C   0  0
    1.9419    3.0222    0.0609 C   0  0
    2.8123   -0.2594   -1.7732 C   0  0
    0.4223   -1.0690   -1.8727 C   0  0
    0.7381    2.0997    0.0081 C   0  0
    1.3473    0.1226   -1.5675 C   0  0  1  0  0  0
    1.4186   -0.1705    0.8443 N   0  0
    1.3073   -0.0136    4.3852 N   0  0
    1.2788    0.2743    2.1084 N   0  0
    1.7910   -1.7974    3.0221 O   0  0
   -1.3398    0.1501   -2.3050 H   0  0
   -4.0062   -1.2541   -1.6788 H   0  0
   -3.8291   -0.9853    0.0594 H   0  0
   -3.3797    0.2914   -1.0935 H   0  0
   -1.4291   -2.1741    0.9409 H   0  0
   -0.9221   -3.1226   -0.4714 H   0  0
   -2.6019   -3.1438    0.0566 H   0  0
    2.5463    2.9442   -0.8484 H   0  0
    1.6196    4.0622    0.1702 H   0  0
    2.5877    2.7757    0.9098 H   0  0
    3.1116   -1.0735   -1.1038 H   0  0
    3.4697    0.5928   -1.5692 H   0  0
    2.9890   -0.5839   -2.8038 H   0  0
    0.7029   -1.9352   -1.2669 H   0  0
    0.5686   -1.3781   -2.9158 H   0  0
    0.1569    2.2029    0.9313 H   0  0
    0.0640    2.3806   -0.8061 H   0  0
    1.1081    0.9383   -2.2619 H   0  0
    1.0557    0.9681    4.4300 H   0  0
    1.4241   -0.5374    5.2461 H   0  0
    0.9901    1.2295    2.2775 H   0  0
  1  2  2  0
  1  9  1  0
  2  5  1  0
  2  6  1  0
  3 10  1  0
  3 11  1  0
  3 12  2  0
  4 13  1  0
  4 14  1  0
  4 15  2  0
  7 10  1  0
  8 11  1  0
  9 11  1  0
 12 14  1  0
  1 16  1  0
  5 17  1  0
  5 18  1  0
  5 19  1  0
  6 20  1  0
  6 21  1  0
  6 22  1  0
  7 23  1  0
  7 24  1  0
  7 25  1  0
  8 26  1  0
  8 27  1  0
  8 28  1  0
  9 29  1  0
  9 30  1  0
 10 31  1  0
 10 32  1  0
 11 33  1  0
 13 34  1  0
 13 35  1  0
 14 36  1  0
M  END
> <Name>
BR020260

$$$$
BR020261
  SciTegic05062102053D

 36 35  0  0  1  0            999 V2000
    0.1877    2.9607   -2.4179 C   0  0
   -0.6279    3.7042   -3.1893 C   0  0
   -0.0722    0.3216   -1.0031 C   0  0
    2.9919   -1.4520   -1.0082 C   0  0
   -0.5814    3.7788   -4.6894 C   0  0
   -1.6894    4.5675   -2.5602 C   0  0
   -1.8068   -1.4773   -1.0068 C   0  0
   -0.6349    1.5653    1.0968 C   0  0
    0.1943    2.8414   -0.9176 C   0  0
   -1.0197   -0.5024   -1.8621 C   0  0
   -0.6250    1.6349   -0.4301 C   0  0  1  0  0  0
    1.1618    0.0197   -0.7271 N   0  0
    3.7206   -0.6004   -0.2222 N   0  0
    1.6847   -1.1096   -1.2502 N   0  0
    3.6610   -2.8462   -1.6420 S   0  0
    0.9519    2.3616   -2.9122 H   0  0
   -1.2088    3.0375   -5.1871 H   0  0
    0.4441    3.6216   -5.0405 H   0  0
   -0.9126    4.7667   -5.0264 H   0  0
   -1.2913    5.5660   -2.3520 H   0  0
   -2.0284    4.1244   -1.6180 H   0  0
   -2.5667    4.6880   -3.2045 H   0  0
   -2.3971   -0.9380   -0.2597 H   0  0
   -2.4926   -2.0715   -1.6196 H   0  0
   -1.1443   -2.1732   -0.4824 H   0  0
    0.3818    1.4510    1.4880 H   0  0
   -1.0612    2.4793    1.5233 H   0  0
   -1.2254    0.7166    1.4591 H   0  0
   -0.1519    3.7595   -0.4336 H   0  0
    1.2389    2.7189   -0.6028 H   0  0
   -0.4344   -1.0564   -2.6043 H   0  0
   -1.6884    0.1483   -2.4327 H   0  0
   -1.6643    1.7487   -0.7630 H   0  0
    3.3113    0.2441    0.1632 H   0  0
    4.6925   -0.7873    0.0006 H   0  0
    1.1059   -1.6919   -1.8424 H   0  0
  1  2  2  0
  1  9  1  0
  2  5  1  0
  2  6  1  0
  3 10  1  0
  3 11  1  0
  3 12  2  0
  4 13  1  0
  4 14  1  0
  4 15  2  0
  7 10  1  0
  8 11  1  0
  9 11  1  0
 12 14  1  0
  1 16  1  0
  5 17  1  0
  5 18  1  0
  5 19  1  0
  6 20  1  0
  6 21  1  0
  6 22  1  0
  7 23  1  0
  7 24  1  0
  7 25  1  0
  8 26  1  0
  8 27  1  0
  8 28  1  0
  9 29  1  0
  9 30  1  0
 10 31  1  0
 10 32  1  0
 11 33  1  0
 13 34  1  0
 13 35  1  0
 14 36  1  0
M  END
> <Name>
BR020261

$$$$
BR020262
  SciTegic05062102053D

 32 33  0  0  1  0            999 V2000
    0.4642   -1.5161    0.8978 C   0  0
   -0.4912   -1.3788   -0.0388 C   0  0
   -1.0706   -2.5537   -0.6814 C   0  0
   -3.7315   -3.1813    1.5047 C   0  0
    1.0752   -0.2889    1.5451 C   0  0
   -1.1405    0.8276    0.9715 C   0  0
   -0.9229    0.0202   -0.3618 C   0  0  1  0  0  0
    0.4175    0.9808    0.9587 C   0  0  2  0  0  0
    0.2921    1.0199   -0.6288 C   0  0
   -0.1116    2.3847   -1.2215 C   0  0
    1.4878    0.5045   -1.4408 C   0  0
   -2.1149   -3.1622   -0.2137 N   0  0
   -4.1166   -2.5053    2.6479 N   0  0
   -2.6143   -2.6122    0.9162 N   0  0
   -4.3271   -4.1702    1.0799 O   0  0
    0.8325   -2.4912    1.2000 H   0  0
   -0.5537   -2.8919   -1.6020 H   0  0
    0.9133   -0.3290    2.6279 H   0  0
    2.1555   -0.2731    1.3668 H   0  0
   -1.7130    1.7556    0.8760 H   0  0
   -1.5716    0.2814    1.8184 H   0  0
   -1.7488    0.0705   -1.0776 H   0  0
    0.7979    1.8968    1.4220 H   0  0
    0.7786    2.9864   -1.3646 H   0  0
   -0.7864    2.8836   -0.5356 H   0  0
   -0.6053    2.2258   -2.1734 H   0  0
    2.2274    1.2943   -1.5369 H   0  0
    1.1510    0.2015   -2.4281 H   0  0
    1.9308   -0.3469   -0.9318 H   0  0
   -3.5857   -1.6954    2.9500 H   0  0
   -4.9201   -2.8043    3.1902 H   0  0
   -2.1567   -1.7942    1.3052 H   0  0
  1  2  2  0
  1  5  1  0
  2  3  1  0
  2  7  1  0
  3 12  2  0
  4 13  1  0
  4 14  1  0
  4 15  2  0
  5  8  1  0
  6  7  1  0
  6  8  1  0
  7  9  1  0
  8  9  1  0
  9 10  1  0
  9 11  1  0
 12 14  1  0
  1 16  1  0
  3 17  1  0
  5 18  1  0
  5 19  1  0
  6 20  1  0
  6 21  1  0
  7 22  1  0
  8 23  1  0
 10 24  1  0
 10 25  1  0
 10 26  1  0
 11 27  1  0
 11 28  1  0
 11 29  1  0
 13 30  1  0
 13 31  1  0
 14 32  1  0
M  END
> <Name>
BR020262

$$$$
BR020263
  SciTegic05062102053D

 32 33  0  0  1  0            999 V2000
    0.4642   -1.5161    0.8978 C   0  0
   -0.4912   -1.3788   -0.0388 C   0  0
   -1.0706   -2.5537   -0.6814 C   0  0
   -3.7206   -3.1437    1.5353 C   0  0
    1.0752   -0.2889    1.5451 C   0  0
   -1.1405    0.8276    0.9715 C   0  0
   -0.9229    0.0202   -0.3618 C   0  0  1  0  0  0
    0.4175    0.9808    0.9587 C   0  0  2  0  0  0
    0.2921    1.0199   -0.6288 C   0  0
   -0.1116    2.3847   -1.2215 C   0  0
    1.4878    0.5045   -1.4408 C   0  0
   -2.1146   -3.1622   -0.2134 N   0  0
   -4.2842   -4.2470    0.9530 N   0  0
   -2.6154   -2.6116    0.9191 N   0  0
   -4.3498   -2.4746    2.9320 S   0  0
    0.8325   -2.4912    1.2000 H   0  0
   -0.5535   -2.8917   -1.6020 H   0  0
    0.9133   -0.3290    2.6279 H   0  0
    2.1555   -0.2731    1.3668 H   0  0
   -1.7130    1.7556    0.8760 H   0  0
   -1.5716    0.2814    1.8184 H   0  0
   -1.7488    0.0705   -1.0776 H   0  0
    0.7979    1.8968    1.4220 H   0  0
    0.7786    2.9864   -1.3646 H   0  0
   -0.7864    2.8836   -0.5356 H   0  0
   -0.6053    2.2258   -2.1734 H   0  0
    2.2274    1.2943   -1.5369 H   0  0
    1.1510    0.2015   -2.4281 H   0  0
    1.9308   -0.3469   -0.9318 H   0  0
   -3.9016   -4.6518    0.1052 H   0  0
   -5.1024   -4.6950    1.3512 H   0  0
   -2.1490   -1.7935    1.2986 H   0  0
  1  2  2  0
  1  5  1  0
  2  3  1  0
  2  7  1  0
  3 12  2  0
  4 13  1  0
  4 14  1  0
  4 15  2  0
  5  8  1  0
  6  7  1  0
  6  8  1  0
  7  9  1  0
  8  9  1  0
  9 10  1  0
  9 11  1  0
 12 14  1  0
  1 16  1  0
  3 17  1  0
  5 18  1  0
  5 19  1  0
  6 20  1  0
  6 21  1  0
  7 22  1  0
  8 23  1  0
 10 24  1  0
 10 25  1  0
 10 26  1  0
 11 27  1  0
 11 28  1  0
 11 29  1  0
 13 30  1  0
 13 31  1  0
 14 32  1  0
M  END
> <Name>
BR020263

$$$$
BR020264
  SciTegic05062102053D

 29 29  0  0  0  0            999 V2000
    1.8851   -1.0363   -0.1124 C   0  0
    2.8783   -1.6520    2.0022 C   0  0
    0.8066   -0.4630    0.5610 C   0  0
    1.7997   -1.0786    2.6757 C   0  0
    2.9210   -1.6309    0.6081 C   0  0
    0.7638   -0.4841    1.9551 C   0  0
    4.0455   -2.2286   -0.0940 C   0  0
    7.0974   -3.9254    0.2777 C   0  0
   -1.4081    0.7157    1.8965 C   0  0
   -0.3873    0.0664    4.0839 C   0  0
    5.0406   -2.7984    0.5265 N   0  0
    7.9824   -4.3830   -0.6811 N   0  0
    5.9974   -3.3005   -0.2858 N   0  0
   -0.3267    0.0955    2.6360 N   0  0
    7.2869   -4.0683    1.4848 O   0  0
    1.9083   -1.0142   -1.1990 H   0  0
    3.6800   -2.1126    2.5737 H   0  0
    0.0047   -0.0024   -0.0104 H   0  0
    1.7764   -1.1006    3.7622 H   0  0
    4.0340   -2.1865   -1.2081 H   0  0
   -2.1591    1.1078    2.5871 H   0  0
   -1.8837   -0.0159    1.2377 H   0  0
   -1.0259    1.5393    1.2875 H   0  0
   -1.2983    0.5603    4.4319 H   0  0
    0.4774    0.5833    4.5088 H   0  0
   -0.3885   -0.9668    4.4415 H   0  0
    7.8061   -4.2539   -1.6718 H   0  0
    8.8376   -4.8630   -0.4214 H   0  0
    5.8860   -3.2064   -1.2902 H   0  0
  1  3  1  0
  1  5  2  0
  2  4  2  0
  2  5  1  0
  3  6  2  0
  4  6  1  0
  5  7  1  0
  6 14  1  0
  7 11  2  0
  8 12  1  0
  8 13  1  0
  8 15  2  0
  9 14  1  0
 10 14  1  0
 11 13  1  0
  1 16  1  0
  2 17  1  0
  3 18  1  0
  4 19  1  0
  7 20  1  0
  9 21  1  0
  9 22  1  0
  9 23  1  0
 10 24  1  0
 10 25  1  0
 10 26  1  0
 12 27  1  0
 12 28  1  0
 13 29  1  0
M  END
> <Name>
BR020264

$$$$
BR020265
  SciTegic05062102053D

 29 29  0  0  0  0            999 V2000
    1.8851   -1.0363   -0.1124 C   0  0
    2.8783   -1.6520    2.0022 C   0  0
    0.8066   -0.4630    0.5610 C   0  0
    1.7997   -1.0786    2.6757 C   0  0
    2.9210   -1.6309    0.6081 C   0  0
    0.7638   -0.4841    1.9551 C   0  0
    4.0455   -2.2286   -0.0940 C   0  0
    7.1089   -3.9229    0.2359 C   0  0
   -1.4081    0.7157    1.8965 C   0  0
   -0.3873    0.0664    4.0839 C   0  0
    5.0410   -2.7960    0.5277 N   0  0
    7.1880   -4.0098    1.5999 N   0  0
    6.0024   -3.2984   -0.2837 N   0  0
   -0.3267    0.0955    2.6360 N   0  0
    8.3049   -4.5470   -0.7511 S   0  0
    1.9083   -1.0142   -1.1990 H   0  0
    3.6800   -2.1126    2.5737 H   0  0
    0.0047   -0.0024   -0.0104 H   0  0
    1.7764   -1.1006    3.7622 H   0  0
    4.0344   -2.1867   -1.2082 H   0  0
   -2.1591    1.1078    2.5871 H   0  0
   -1.8837   -0.0159    1.2377 H   0  0
   -1.0259    1.5393    1.2875 H   0  0
   -1.2983    0.5603    4.4319 H   0  0
    0.4774    0.5833    4.5088 H   0  0
   -0.3885   -0.9668    4.4415 H   0  0
    6.4620   -3.6287    2.1974 H   0  0
    7.9762   -4.4561    2.0567 H   0  0
    5.8812   -3.1994   -1.2869 H   0  0
  1  3  1  0
  1  5  2  0
  2  4  2  0
  2  5  1  0
  3  6  2  0
  4  6  1  0
  5  7  1  0
  6 14  1  0
  7 11  2  0
  8 12  1  0
  8 13  1  0
  8 15  2  0
  9 14  1  0
 10 14  1  0
 11 13  1  0
  1 16  1  0
  2 17  1  0
  3 18  1  0
  4 19  1  0
  7 20  1  0
  9 21  1  0
  9 22  1  0
  9 23  1  0
 10 24  1  0
 10 25  1  0
 10 26  1  0
 12 27  1  0
 12 28  1  0
 13 29  1  0
M  END
> <Name>
BR020265

$$$$
BR020266
  SciTegic05062102053D

 25 25  0  0  0  0            999 V2000
    1.8851   -1.0363   -0.1124 C   0  0
    2.8783   -1.6520    2.0022 C   0  0
    0.8066   -0.4630    0.5610 C   0  0
    1.7997   -1.0786    2.6757 C   0  0
    2.9210   -1.6309    0.6081 C   0  0
    0.7638   -0.4841    1.9551 C   0  0
    4.0457   -2.2285   -0.0938 C   0  0
    7.0977   -3.9251    0.2786 C   0  0
   -1.3132    0.6656    1.8143 C   0  0
    5.0407   -2.7982    0.5269 N   0  0
    7.9830   -4.3825   -0.6802 N   0  0
    5.9978   -3.3002   -0.2852 N   0  0
    7.2869   -4.0680    1.4857 O   0  0
   -0.2886    0.0750    2.6125 O   0  0
    1.9078   -1.0136   -1.1990 H   0  0
    3.6806   -2.1126    2.5729 H   0  0
    0.0026   -0.0015   -0.0059 H   0  0
    1.7717   -1.0984    3.7617 H   0  0
    4.0344   -2.1863   -1.2079 H   0  0
   -2.0917    1.0740    2.4632 H   0  0
   -1.7382   -0.0896    1.1482 H   0  0
   -0.8791    1.4716    1.2180 H   0  0
    7.8069   -4.2534   -1.6708 H   0  0
    8.8381   -4.8624   -0.4203 H   0  0
    5.8865   -3.2061   -1.2896 H   0  0
  1  3  1  0
  1  5  2  0
  2  4  2  0
  2  5  1  0
  3  6  2  0
  4  6  1  0
  5  7  1  0
  6 14  1  0
  7 10  2  0
  8 11  1  0
  8 12  1  0
  8 13  2  0
  9 14  1  0
 10 12  1  0
  1 15  1  0
  2 16  1  0
  3 17  1  0
  4 18  1  0
  7 19  1  0
  9 20  1  0
  9 21  1  0
  9 22  1  0
 11 23  1  0
 11 24  1  0
 12 25  1  0
M  END
> <Name>
BR020266

$$$$
BR020267
  SciTegic05062102053D

 25 25  0  0  0  0            999 V2000
    1.8851   -1.0363   -0.1124 C   0  0
    2.8783   -1.6520    2.0022 C   0  0
    0.8066   -0.4630    0.5610 C   0  0
    1.7997   -1.0786    2.6757 C   0  0
    2.9210   -1.6309    0.6081 C   0  0
    0.7638   -0.4841    1.9551 C   0  0
    4.0457   -2.2285   -0.0938 C   0  0
    7.1092   -3.9225    0.2368 C   0  0
   -1.3132    0.6656    1.8143 C   0  0
    5.0411   -2.7958    0.5281 N   0  0
    7.1880   -4.0095    1.6007 N   0  0
    6.0028   -3.2981   -0.2831 N   0  0
   -0.2886    0.0750    2.6125 O   0  0
    8.3054   -4.5465   -0.7500 S   0  0
    1.9078   -1.0136   -1.1990 H   0  0
    3.6806   -2.1126    2.5729 H   0  0
    0.0026   -0.0015   -0.0059 H   0  0
    1.7717   -1.0984    3.7617 H   0  0
    4.0348   -2.1865   -1.2080 H   0  0
   -2.0917    1.0740    2.4632 H   0  0
   -1.7382   -0.0896    1.1482 H   0  0
   -0.8791    1.4716    1.2180 H   0  0
    6.4618   -3.6285    2.1980 H   0  0
    7.9761   -4.4558    2.0576 H   0  0
    5.8818   -3.1990   -1.2863 H   0  0
  1  3  1  0
  1  5  2  0
  2  4  2  0
  2  5  1  0
  3  6  2  0
  4  6  1  0
  5  7  1  0
  6 13  1  0
  7 10  2  0
  8 11  1  0
  8 12  1  0
  8 14  2  0
  9 13  1  0
 10 12  1  0
  1 15  1  0
  2 16  1  0
  3 17  1  0
  4 18  1  0
  7 19  1  0
  9 20  1  0
  9 21  1  0
  9 22  1  0
 11 23  1  0
 11 24  1  0
 12 25  1  0
M  END
> <Name>
BR020267

$$$$
BR020268
  SciTegic05062102053D

 26 26  0  0  0  0            999 V2000
    1.8851   -1.0363   -0.1124 C   0  0
    0.8066   -0.4630    0.5610 C   0  0
    2.8783   -1.6520    2.0022 C   0  0
    2.9210   -1.6309    0.6081 C   0  0
    0.7638   -0.4841    1.9551 C   0  0
    1.7997   -1.0786    2.6757 C   0  0
    4.0445   -2.2304   -0.0942 C   0  0
    7.0952   -3.9294    0.2772 C   0  0
    2.8665   -1.7345    4.6974 C   0  0
    5.0395   -2.8003    0.5262 N   0  0
    7.9791   -4.3888   -0.6818 N   0  0
    5.9953   -3.3042   -0.2862 N   0  0
    7.2855   -4.0710    1.4843 O   0  0
   -0.2951    0.0791    2.6011 O   0  0
    1.7685   -1.1079    4.0373 O   0  0
    1.9079   -1.0141   -1.1989 H   0  0
    0.0030   -0.0012   -0.0060 H   0  0
    3.6832   -2.1169    2.5670 H   0  0
    4.0321   -2.1896   -1.2083 H   0  0
    2.7166   -1.6889    5.7789 H   0  0
    3.7947   -1.2256    4.4257 H   0  0
    2.9208   -2.7795    4.3832 H   0  0
    7.8021   -4.2608   -1.6725 H   0  0
    8.8340   -4.8693   -0.4222 H   0  0
    5.8831   -3.2112   -1.2906 H   0  0
   -0.9229    0.4459    1.9589 H   0  0
  1  2  2  0
  1  4  1  0
  2  5  1  0
  3  4  2  0
  3  6  1  0
  4  7  1  0
  5  6  2  0
  5 14  1  0
  6 15  1  0
  7 10  2  0
  8 11  1  0
  8 12  1  0
  8 13  2  0
  9 15  1  0
 10 12  1  0
  1 16  1  0
  2 17  1  0
  3 18  1  0
  7 19  1  0
  9 20  1  0
  9 21  1  0
  9 22  1  0
 11 23  1  0
 11 24  1  0
 12 25  1  0
 14 26  1  0
M  END
> <Name>
BR020268

$$$$
BR020269
  SciTegic05062102053D

 26 26  0  0  0  0            999 V2000
    1.8851   -1.0363   -0.1124 C   0  0
    0.8066   -0.4630    0.5610 C   0  0
    2.8783   -1.6520    2.0022 C   0  0
    2.9210   -1.6309    0.6081 C   0  0
    0.7638   -0.4841    1.9551 C   0  0
    1.7997   -1.0786    2.6757 C   0  0
    4.0445   -2.2304   -0.0942 C   0  0
    7.1066   -3.9269    0.2354 C   0  0
    2.8665   -1.7345    4.6974 C   0  0
    5.0399   -2.7979    0.5274 N   0  0
    7.1867   -4.0122    1.5994 N   0  0
    6.0003   -3.3021   -0.2841 N   0  0
   -0.2951    0.0791    2.6011 O   0  0
    1.7685   -1.1079    4.0373 O   0  0
    8.3013   -4.5532   -0.7518 S   0  0
    1.9079   -1.0141   -1.1989 H   0  0
    0.0030   -0.0012   -0.0060 H   0  0
    3.6832   -2.1169    2.5670 H   0  0
    4.0325   -2.1898   -1.2084 H   0  0
    2.7166   -1.6889    5.7789 H   0  0
    3.7947   -1.2256    4.4257 H   0  0
    2.9208   -2.7795    4.3832 H   0  0
    6.4615   -3.6298    2.1970 H   0  0
    7.9749   -4.4587    2.0561 H   0  0
    5.8784   -3.2042   -1.2873 H   0  0
   -0.9229    0.4459    1.9589 H   0  0
  1  2  2  0
  1  4  1  0
  2  5  1  0
  3  4  2  0
  3  6  1  0
  4  7  1  0
  5  6  2  0
  5 13  1  0
  6 14  1  0
  7 10  2  0
  8 11  1  0
  8 12  1  0
  8 15  2  0
  9 14  1  0
 10 12  1  0
  1 16  1  0
  2 17  1  0
  3 18  1  0
  7 19  1  0
  9 20  1  0
  9 21  1  0
  9 22  1  0
 11 23  1  0
 11 24  1  0
 12 25  1  0
 13 26  1  0
M  END
> <Name>
BR020269

$$$$
BR020270
  SciTegic05062102053D

 29 29  0  0  0  0            999 V2000
    1.8851   -1.0363   -0.1124 C   0  0
    0.8066   -0.4630    0.5610 C   0  0
    2.8783   -1.6520    2.0022 C   0  0
    2.9210   -1.6309    0.6081 C   0  0
    0.7638   -0.4841    1.9551 C   0  0
    1.7997   -1.0786    2.6757 C   0  0
    4.0445   -2.2304   -0.0942 C   0  0
    7.0952   -3.9294    0.2772 C   0  0
   -1.3114    0.6657    1.7905 C   0  0
    2.8665   -1.7345    4.6974 C   0  0
    5.0395   -2.8003    0.5262 N   0  0
    7.9791   -4.3888   -0.6818 N   0  0
    5.9953   -3.3042   -0.2862 N   0  0
    7.2855   -4.0710    1.4843 O   0  0
   -0.2951    0.0791    2.6011 O   0  0
    1.7685   -1.1079    4.0373 O   0  0
    1.9079   -1.0141   -1.1989 H   0  0
    0.0030   -0.0012   -0.0060 H   0  0
    3.6832   -2.1169    2.5670 H   0  0
    4.0321   -2.1896   -1.2083 H   0  0
   -2.0959    1.0779    2.4299 H   0  0
   -1.7304   -0.0927    1.1243 H   0  0
   -0.8713    1.4685    1.1942 H   0  0
    2.7166   -1.6889    5.7789 H   0  0
    3.7947   -1.2256    4.4257 H   0  0
    2.9208   -2.7795    4.3832 H   0  0
    7.8021   -4.2608   -1.6725 H   0  0
    8.8340   -4.8693   -0.4222 H   0  0
    5.8831   -3.2112   -1.2906 H   0  0
  1  2  2  0
  1  4  1  0
  2  5  1  0
  3  4  2  0
  3  6  1  0
  4  7  1  0
  5  6  2  0
  5 15  1  0
  6 16  1  0
  7 11  2  0
  8 12  1  0
  8 13  1  0
  8 14  2  0
  9 15  1  0
 10 16  1  0
 11 13  1  0
  1 17  1  0
  2 18  1  0
  3 19  1  0
  7 20  1  0
  9 21  1  0
  9 22  1  0
  9 23  1  0
 10 24  1  0
 10 25  1  0
 10 26  1  0
 12 27  1  0
 12 28  1  0
 13 29  1  0
M  END
> <Name>
BR020270

$$$$
BR020271
  SciTegic05062102053D

 29 29  0  0  0  0            999 V2000
    1.8851   -1.0363   -0.1124 C   0  0
    0.8066   -0.4630    0.5610 C   0  0
    2.8783   -1.6520    2.0022 C   0  0
    2.9210   -1.6309    0.6081 C   0  0
    0.7638   -0.4841    1.9551 C   0  0
    1.7997   -1.0786    2.6757 C   0  0
    4.0445   -2.2304   -0.0942 C   0  0
    7.1066   -3.9269    0.2354 C   0  0
   -1.3114    0.6657    1.7905 C   0  0
    2.8665   -1.7345    4.6974 C   0  0
    5.0399   -2.7979    0.5274 N   0  0
    7.1867   -4.0122    1.5994 N   0  0
    6.0003   -3.3021   -0.2841 N   0  0
   -0.2951    0.0791    2.6011 O   0  0
    1.7685   -1.1079    4.0373 O   0  0
    8.3013   -4.5532   -0.7518 S   0  0
    1.9079   -1.0141   -1.1989 H   0  0
    0.0030   -0.0012   -0.0060 H   0  0
    3.6832   -2.1169    2.5670 H   0  0
    4.0325   -2.1898   -1.2084 H   0  0
   -2.0959    1.0779    2.4299 H   0  0
   -1.7304   -0.0927    1.1243 H   0  0
   -0.8713    1.4685    1.1942 H   0  0
    2.7166   -1.6889    5.7789 H   0  0
    3.7947   -1.2256    4.4257 H   0  0
    2.9208   -2.7795    4.3832 H   0  0
    6.4615   -3.6298    2.1970 H   0  0
    7.9749   -4.4587    2.0561 H   0  0
    5.8784   -3.2042   -1.2873 H   0  0
  1  2  2  0
  1  4  1  0
  2  5  1  0
  3  4  2  0
  3  6  1  0
  4  7  1  0
  5  6  2  0
  5 14  1  0
  6 15  1  0
  7 11  2  0
  8 12  1  0
  8 13  1  0
  8 16  2  0
  9 14  1  0
 10 15  1  0
 11 13  1  0
  1 17  1  0
  2 18  1  0
  3 19  1  0
  7 20  1  0
  9 21  1  0
  9 22  1  0
  9 23  1  0
 10 24  1  0
 10 25  1  0
 10 26  1  0
 12 27  1  0
 12 28  1  0
 13 29  1  0
M  END
> <Name>
BR020271

$$$$
BR020272
  SciTegic05062102053D

 33 33  0  0  0  0            999 V2000
    1.8851   -1.0363   -0.1124 C   0  0
    0.7638   -0.4841    1.9551 C   0  0
    0.8066   -0.4630    0.5610 C   0  0
    2.9210   -1.6309    0.6081 C   0  0
    1.7997   -1.0786    2.6757 C   0  0
    2.8783   -1.6520    2.0022 C   0  0
   -0.2752    0.1546   -0.1896 C   0  0
   -1.4842    0.9146   -3.3977 C   0  0
    5.0805   -1.3411   -0.3449 C   0  0
    2.3333    0.0118    4.7207 C   0  0
    3.7602   -3.6201    3.0045 C   0  0
   -0.2909    0.2014   -1.4924 N   0  0
   -2.6438    1.5639   -3.7796 N   0  0
   -1.3746    0.8130   -2.0208 N   0  0
   -0.6609    0.4862   -4.2052 O   0  0
    3.9683   -2.1878   -0.0618 O   0  0
    1.7454   -1.0931    4.0369 O   0  0
    3.8916   -2.2322    2.7061 O   0  0
    1.9221   -1.0238   -1.1993 H   0  0
   -0.0748   -0.0377    2.4845 H   0  0
   -1.1145    0.5990    0.3944 H   0  0
    5.8444   -1.9089   -0.8816 H   0  0
    5.4907   -0.9519    0.5905 H   0  0
    4.7441   -0.5085   -0.9672 H   0  0
    2.2212   -0.1246    5.7990 H   0  0
    1.8443    0.9375    4.4069 H   0  0
    3.3957    0.0603    4.4703 H   0  0
    4.6339   -3.9568    3.5678 H   0  0
    3.6725   -4.1870    2.0742 H   0  0
    2.8610   -3.7706    3.6067 H   0  0
   -3.3091    1.9095   -3.0963 H   0  0
   -2.8643    1.7146   -4.7583 H   0  0
   -2.0817    1.1837   -1.3943 H   0  0
  1  3  2  0
  1  4  1  0
  2  3  1  0
  2  5  2  0
  3  7  1  0
  4  6  2  0
  4 16  1  0
  5  6  1  0
  5 17  1  0
  6 18  1  0
  7 12  2  0
  8 13  1  0
  8 14  1  0
  8 15  2  0
  9 16  1  0
 10 17  1  0
 11 18  1  0
 12 14  1  0
  1 19  1  0
  2 20  1  0
  7 21  1  0
  9 22  1  0
  9 23  1  0
  9 24  1  0
 10 25  1  0
 10 26  1  0
 10 27  1  0
 11 28  1  0
 11 29  1  0
 11 30  1  0
 13 31  1  0
 13 32  1  0
 14 33  1  0
M  END
> <Name>
BR020272

$$$$
BR020273
  SciTegic05062102053D

 33 33  0  0  0  0            999 V2000
    1.8851   -1.0363   -0.1124 C   0  0
    0.7638   -0.4841    1.9551 C   0  0
    0.8066   -0.4630    0.5610 C   0  0
    2.9210   -1.6309    0.6081 C   0  0
    1.7997   -1.0786    2.6757 C   0  0
    2.8783   -1.6520    2.0022 C   0  0
   -0.2752    0.1546   -0.1896 C   0  0
   -1.5170    0.9397   -3.3841 C   0  0
    3.9344   -2.1234   -1.4862 C   0  0
    2.3333    0.0118    4.7207 C   0  0
    3.7602   -3.6201    3.0045 C   0  0
   -0.2886    0.2027   -1.4922 N   0  0
   -0.5207    0.4154   -4.1631 N   0  0
   -1.3724    0.8169   -2.0246 N   0  0
    3.9683   -2.1878   -0.0618 O   0  0
    1.7454   -1.0931    4.0369 O   0  0
    3.8916   -2.2322    2.7061 O   0  0
   -2.8472    1.6957   -4.0571 S   0  0
    1.9221   -1.0238   -1.1993 H   0  0
   -0.0748   -0.0377    2.4845 H   0  0
   -1.1148    0.5991    0.3941 H   0  0
    4.8271   -2.6033   -1.8947 H   0  0
    3.8919   -1.0785   -1.8036 H   0  0
    3.0454   -2.6476   -1.8447 H   0  0
    2.2212   -0.1246    5.7990 H   0  0
    1.8443    0.9375    4.4069 H   0  0
    3.3957    0.0603    4.4703 H   0  0
    4.6339   -3.9568    3.5678 H   0  0
    3.6725   -4.1870    2.0742 H   0  0
    2.8610   -3.7706    3.6067 H   0  0
    0.2869   -0.0414   -3.7527 H   0  0
   -0.5572    0.4689   -5.1754 H   0  0
   -2.0742    1.1839   -1.3892 H   0  0
  1  3  2  0
  1  4  1  0
  2  3  1  0
  2  5  2  0
  3  7  1  0
  4  6  2  0
  4 15  1  0
  5  6  1  0
  5 16  1  0
  6 17  1  0
  7 12  2  0
  8 13  1  0
  8 14  1  0
  8 18  2  0
  9 15  1  0
 10 16  1  0
 11 17  1  0
 12 14  1  0
  1 19  1  0
  2 20  1  0
  7 21  1  0
  9 22  1  0
  9 23  1  0
  9 24  1  0
 10 25  1  0
 10 26  1  0
 10 27  1  0
 11 28  1  0
 11 29  1  0
 11 30  1  0
 13 31  1  0
 13 32  1  0
 14 33  1  0
M  END
> <Name>
BR020273

$$$$
BR020274
  SciTegic05062102053D

 21 22  0  0  0  0            999 V2000
    5.6086   -3.0478   -1.4395 C   0  0
    1.8851   -1.0363   -0.1124 C   0  0
    2.8783   -1.6520    2.0022 C   0  0
    0.8066   -0.4630    0.5610 C   0  0
    1.7997   -1.0786    2.6757 C   0  0
    4.3692   -2.3649   -1.4154 C   0  0
    5.9450   -3.2752   -0.1253 C   0  0
    2.9210   -1.6309    0.6081 C   0  0
    0.7638   -0.4841    1.9551 C   0  0
    4.0364   -2.2239   -0.0882 C   0  0
   -0.3267    0.0955    2.6361 N   0  0
    4.9918   -2.7762    0.7047 O   0  0
    6.1845   -3.3378   -2.3063 H   0  0
    1.9040   -1.0119   -1.1995 H   0  0
    3.6781   -2.1116    2.5780 H   0  0
    0.0045   -0.0025   -0.0102 H   0  0
    1.7767   -1.1007    3.7622 H   0  0
    3.7940   -2.0206   -2.2635 H   0  0
    6.7834   -3.7531    0.3599 H   0  0
   -1.0393    0.5599    2.1102 H   0  0
   -0.3224    0.1155    3.6359 H   0  0
  1  6  1  0
  1  7  2  0
  2  4  2  0
  2  8  1  0
  3  5  1  0
  3  8  2  0
  4  9  1  0
  5  9  2  0
  6 10  2  0
  7 12  1  0
  8 10  1  0
  9 11  1  0
 10 12  1  0
  1 13  1  0
  2 14  1  0
  3 15  1  0
  4 16  1  0
  5 17  1  0
  6 18  1  0
  7 19  1  0
 11 20  1  0
 11 21  1  0
M  END
> <Name>
BR020274

$$$$
BR020275
  SciTegic05062102053D

 26 27  0  0  0  0            999 V2000
    5.6086   -3.0484   -1.4393 C   0  0
    1.8851   -1.0363   -0.1124 C   0  0
    2.8783   -1.6520    2.0022 C   0  0
    0.8066   -0.4630    0.5610 C   0  0
    1.7997   -1.0786    2.6757 C   0  0
    4.3692   -2.3654   -1.4153 C   0  0
    5.9449   -3.2756   -0.1251 C   0  0
    2.9210   -1.6309    0.6081 C   0  0
    0.7638   -0.4841    1.9551 C   0  0
    4.0364   -2.2241   -0.0882 C   0  0
   -0.5308    0.1640    4.0113 C   0  0
   -1.8244    0.8670    4.3381 C   0  0
   -0.3150    0.0893    2.6288 N   0  0
    0.1956   -0.2616    4.9036 O   0  0
    4.9918   -2.7764    0.7048 O   0  0
    6.1844   -3.3386   -2.3061 H   0  0
    1.9042   -1.0122   -1.1995 H   0  0
    3.6782   -2.1116    2.5779 H   0  0
    0.0045   -0.0029   -0.0105 H   0  0
    1.7776   -1.1017    3.7623 H   0  0
    3.7941   -2.0212   -2.2635 H   0  0
    6.7833   -3.7535    0.3602 H   0  0
   -2.6387    0.1388    4.3895 H   0  0
   -2.0537    1.6008    3.5602 H   0  0
   -1.7355    1.3854    5.2974 H   0  0
   -1.0452    0.5117    2.0438 H   0  0
  1  6  1  0
  1  7  2  0
  2  4  2  0
  2  8  1  0
  3  5  1  0
  3  8  2  0
  4  9  1  0
  5  9  2  0
  6 10  2  0
  7 15  1  0
  8 10  1  0
  9 13  1  0
 10 15  1  0
 11 12  1  0
 11 13  1  0
 11 14  2  0
  1 16  1  0
  2 17  1  0
  3 18  1  0
  4 19  1  0
  5 20  1  0
  6 21  1  0
  7 22  1  0
 12 23  1  0
 12 24  1  0
 12 25  1  0
 13 26  1  0
M  END
> <Name>
BR020275

$$$$
BR020276
  SciTegic05062102053D

 23 24  0  0  0  0            999 V2000
    5.6111   -3.0443   -1.4390 C   0  0
    1.8851   -1.0363   -0.1124 C   0  0
    2.8783   -1.6520    2.0022 C   0  0
    0.8066   -0.4630    0.5610 C   0  0
    1.7997   -1.0786    2.6757 C   0  0
    4.3712   -2.3622   -1.4152 C   0  0
    5.9467   -3.2726   -0.1247 C   0  0
    2.9210   -1.6309    0.6081 C   0  0
    0.7638   -0.4841    1.9551 C   0  0
    4.0374   -2.2226   -0.0881 C   0  0
   -0.3603    0.1147    2.6571 C   0  0
   -0.3547    0.0670    4.0481 N   0  0
   -1.3052    0.6379    2.0408 O   0  0
    4.9926   -2.7749    0.7050 O   0  0
    6.1878   -3.3331   -2.3057 H   0  0
    1.9041   -1.0127   -1.1994 H   0  0
    3.6777   -2.1112    2.5787 H   0  0
    0.0046   -0.0019   -0.0101 H   0  0
    1.7758   -1.1007    3.7621 H   0  0
    3.7964   -2.0175   -2.2633 H   0  0
    6.7852   -3.7504    0.3606 H   0  0
    0.4217   -0.3775    4.5260 H   0  0
   -1.1104    0.4672    4.5948 H   0  0
  1  6  1  0
  1  7  2  0
  2  4  2  0
  2  8  1  0
  3  5  1  0
  3  8  2  0
  4  9  1  0
  5  9  2  0
  6 10  2  0
  7 14  1  0
  8 10  1  0
  9 11  1  0
 10 14  1  0
 11 12  1  0
 11 13  2  0
  1 15  1  0
  2 16  1  0
  3 17  1  0
  4 18  1  0
  5 19  1  0
  6 20  1  0
  7 21  1  0
 12 22  1  0
 12 23  1  0
M  END
> <Name>
BR020276

$$$$
BR020277
  SciTegic05062102053D

 25 26  0  0  0  0            999 V2000
    5.6086   -3.0478   -1.4396 C   0  0
    1.8851   -1.0363   -0.1124 C   0  0
    2.8783   -1.6520    2.0022 C   0  0
    0.8066   -0.4630    0.5610 C   0  0
    1.7997   -1.0786    2.6757 C   0  0
    4.3691   -2.3649   -1.4155 C   0  0
    5.9450   -3.2752   -0.1254 C   0  0
    2.9210   -1.6309    0.6081 C   0  0
    0.7638   -0.4841    1.9551 C   0  0
    4.0364   -2.2239   -0.0883 C   0  0
   -0.3896    0.1284    2.6750 C   0  0
   -1.5062   -0.8253    2.9220 N   0  3
    4.9918   -2.7762    0.7046 O   0  0
    6.1844   -3.3378   -2.3064 H   0  0
    1.9038   -1.0120   -1.1995 H   0  0
    3.6782   -2.1113    2.5781 H   0  0
    0.0037   -0.0023   -0.0084 H   0  0
    1.7751   -1.0999    3.7620 H   0  0
    3.7940   -2.0206   -2.2635 H   0  0
    6.7834   -3.7531    0.3598 H   0  0
   -0.0929    0.5165    3.6590 H   0  0
   -0.8200    0.9667    2.1101 H   0  0
   -1.2207   -1.5525    3.5834 H   0  0
   -1.7924   -1.2793    2.0502 H   0  0
   -2.3179   -0.3382    3.3115 H   0  0
  1  6  1  0
  1  7  2  0
  2  4  2  0
  2  8  1  0
  3  5  1  0
  3  8  2  0
  4  9  1  0
  5  9  2  0
  6 10  2  0
  7 13  1  0
  8 10  1  0
  9 11  1  0
 10 13  1  0
 11 12  1  0
  1 14  1  0
  2 15  1  0
  3 16  1  0
  4 17  1  0
  5 18  1  0
  6 19  1  0
  7 20  1  0
 11 21  1  0
 11 22  1  0
 12 23  1  0
 12 24  1  0
 12 25  1  0
M  CHG  1  12   1
M  END
> <Name>
BR020277

$$$$
BR020278
  SciTegic05062102053D

 29 30  0  0  0  0            999 V2000
    5.6086   -3.0478   -1.4396 C   0  0
    1.8851   -1.0363   -0.1124 C   0  0
    2.8783   -1.6520    2.0022 C   0  0
    0.8066   -0.4630    0.5610 C   0  0
    1.7997   -1.0786    2.6757 C   0  0
    4.3691   -2.3649   -1.4155 C   0  0
    5.9450   -3.2752   -0.1254 C   0  0
    2.9210   -1.6309    0.6081 C   0  0
    0.7638   -0.4841    1.9551 C   0  0
    4.0364   -2.2239   -0.0883 C   0  0
   -2.3778   -1.3523    2.4830 C   0  0
   -3.1830   -2.3721    3.2177 C   0  0
   -0.3896    0.1284    2.6750 C   0  0
   -1.2981   -0.8611    3.1964 N   0  0
   -2.7045   -1.0283    1.3472 O   0  0
    4.9918   -2.7762    0.7046 O   0  0
    6.1844   -3.3378   -2.3064 H   0  0
    1.9038   -1.0120   -1.1995 H   0  0
    3.6782   -2.1113    2.5781 H   0  0
    0.0037   -0.0023   -0.0084 H   0  0
    1.7751   -1.0999    3.7620 H   0  0
    3.7940   -2.0206   -2.2635 H   0  0
    6.7834   -3.7531    0.3598 H   0  0
   -3.9980   -1.9205    3.8060 H   0  0
   -3.6754   -3.0874    2.5395 H   0  0
   -2.6190   -2.9923    3.9326 H   0  0
   -0.0483    0.7413    3.5211 H   0  0
   -0.9693    0.7908    2.0174 H   0  0
   -1.1378   -1.2166    4.1363 H   0  0
  1  6  1  0
  1  7  2  0
  2  4  2  0
  2  8  1  0
  3  5  1  0
  3  8  2  0
  4  9  1  0
  5  9  2  0
  6 10  2  0
  7 16  1  0
  8 10  1  0
  9 13  1  0
 10 16  1  0
 11 12  1  0
 11 14  1  0
 11 15  2  0
 13 14  1  0
  1 17  1  0
  2 18  1  0
  3 19  1  0
  4 20  1  0
  5 21  1  0
  6 22  1  0
  7 23  1  0
 12 24  1  0
 12 25  1  0
 12 26  1  0
 13 27  1  0
 13 28  1  0
 14 29  1  0
M  END
> <Name>
BR020278

$$$$
BR020279
  SciTegic05062102053D

 23 24  0  0  0  0            999 V2000
    1.8851   -1.0363   -0.1124 C   0  0
    2.8783   -1.6520    2.0022 C   0  0
    0.8066   -0.4630    0.5610 C   0  0
    1.7997   -1.0786    2.6757 C   0  0
    4.3678   -2.3681   -1.4153 C   0  0
    5.6063   -3.0528   -1.4392 C   0  0
    2.9210   -1.6309    0.6081 C   0  0
    0.7638   -0.4841    1.9551 C   0  0
    4.0358   -2.2255   -0.0881 C   0  0
    5.9429   -3.2795   -0.1250 C   0  0
    7.0689   -3.9208    0.4635 C   0  0
   -0.3342    0.0993    2.6405 N   0  3
   -1.2557    0.6288    1.9734 O   0  5
    7.2405   -4.0532    1.6960 O   0  0
   -0.3534    0.0692    3.8948 O   0  0
    4.9908   -2.7782    0.7050 O   0  0
    1.9038   -1.0116   -1.1994 H   0  0
    3.6775   -2.1129    2.5780 H   0  0
    0.0054   -0.0035   -0.0128 H   0  0
    1.7777   -1.1032    3.7624 H   0  0
    3.7922   -2.0247   -2.2631 H   0  0
    6.1783   -3.3437   -2.3089 H   0  0
    7.8672   -4.3420   -0.2106 H   0  0
  1  3  2  0
  1  7  1  0
  2  4  1  0
  2  7  2  0
  3  8  1  0
  4  8  2  0
  5  6  1  0
  5  9  2  0
  6 10  2  0
  7  9  1  0
  8 12  1  0
  9 16  1  0
 10 11  1  0
 10 16  1  0
 11 14  2  0
 12 13  1  0
 12 15  2  0
  1 17  1  0
  2 18  1  0
  3 19  1  0
  4 20  1  0
  5 21  1  0
  6 22  1  0
 11 23  1  0
M  CHG  2  12   1  13  -1
M  END
> <Name>
BR020279

$$$$
BR020280
  SciTegic05062102053D

 23 24  0  0  0  0            999 V2000
    1.8851   -1.0363   -0.1124 C   0  0
    2.8783   -1.6520    2.0022 C   0  0
    0.8066   -0.4630    0.5610 C   0  0
    1.7997   -1.0786    2.6757 C   0  0
    4.3690   -2.3648   -1.4154 C   0  0
    5.6080   -3.0486   -1.4396 C   0  0
    2.9210   -1.6309    0.6081 C   0  0
    0.7638   -0.4841    1.9551 C   0  0
    4.0364   -2.2239   -0.0882 C   0  0
    5.9443   -3.2765   -0.1254 C   0  0
    7.0704   -3.9177    0.4627 C   0  0
   -0.3267    0.0955    2.6361 N   0  0
    7.2416   -4.0513    1.6952 O   0  0
    4.9915   -2.7768    0.7046 O   0  0
    1.9040   -1.0119   -1.1995 H   0  0
    3.6781   -2.1116    2.5780 H   0  0
    0.0045   -0.0025   -0.0102 H   0  0
    1.7767   -1.1007    3.7622 H   0  0
    3.7935   -2.0209   -2.2631 H   0  0
    6.1806   -3.3382   -2.3094 H   0  0
    7.8693   -4.3376   -0.2115 H   0  0
   -1.0393    0.5599    2.1102 H   0  0
   -0.3224    0.1155    3.6359 H   0  0
  1  3  2  0
  1  7  1  0
  2  4  1  0
  2  7  2  0
  3  8  1  0
  4  8  2  0
  5  6  1  0
  5  9  2  0
  6 10  2  0
  7  9  1  0
  8 12  1  0
  9 14  1  0
 10 11  1  0
 10 14  1  0
 11 13  2  0
  1 15  1  0
  2 16  1  0
  3 17  1  0
  4 18  1  0
  5 19  1  0
  6 20  1  0
 11 21  1  0
 12 22  1  0
 12 23  1  0
M  END
> <Name>
BR020280

$$$$
BR020281
  SciTegic05062102053D

 28 29  0  0  0  0            999 V2000
    1.8851   -1.0363   -0.1124 C   0  0
    2.8783   -1.6520    2.0022 C   0  0
    0.8066   -0.4630    0.5610 C   0  0
    1.7997   -1.0786    2.6757 C   0  0
    4.3691   -2.3653   -1.4153 C   0  0
    5.6080   -3.0492   -1.4394 C   0  0
    2.9210   -1.6309    0.6081 C   0  0
    0.7638   -0.4841    1.9551 C   0  0
    4.0364   -2.2241   -0.0882 C   0  0
    5.9442   -3.2769   -0.1252 C   0  0
    7.0703   -3.9181    0.4631 C   0  0
   -0.5308    0.1640    4.0113 C   0  0
   -1.8244    0.8670    4.3381 C   0  0
   -0.3150    0.0893    2.6288 N   0  0
    7.2415   -4.0515    1.6956 O   0  0
    0.1956   -0.2616    4.9036 O   0  0
    4.9914   -2.7770    0.7048 O   0  0
    1.9042   -1.0122   -1.1995 H   0  0
    3.6782   -2.1116    2.5779 H   0  0
    0.0045   -0.0029   -0.0105 H   0  0
    1.7776   -1.1017    3.7623 H   0  0
    3.7936   -2.0215   -2.2630 H   0  0
    6.1805   -3.3390   -2.3091 H   0  0
    7.8691   -4.3382   -0.2110 H   0  0
   -2.6387    0.1388    4.3895 H   0  0
   -2.0537    1.6008    3.5602 H   0  0
   -1.7355    1.3854    5.2974 H   0  0
   -1.0452    0.5117    2.0438 H   0  0
  1  3  2  0
  1  7  1  0
  2  4  1  0
  2  7  2  0
  3  8  1  0
  4  8  2  0
  5  6  1  0
  5  9  2  0
  6 10  2  0
  7  9  1  0
  8 14  1  0
  9 17  1  0
 10 11  1  0
 10 17  1  0
 11 15  2  0
 12 13  1  0
 12 14  1  0
 12 16  2  0
  1 18  1  0
  2 19  1  0
  3 20  1  0
  4 21  1  0
  5 22  1  0
  6 23  1  0
 11 24  1  0
 13 25  1  0
 13 26  1  0
 13 27  1  0
 14 28  1  0
M  END
> <Name>
BR020281

$$$$
BR020282
  SciTegic05062102053D

 30 31  0  0  0  0            999 V2000
    2.8242   -0.2433    0.7139 C   0  0
    1.9389   -2.4437    1.1743 C   0  0
    1.7453    0.3313    1.3857 C   0  0
    0.8600   -1.8690    1.8461 C   0  0
    5.1367   -1.7188   -0.7386 C   0  0
    5.8603   -2.8375   -1.2165 C   0  0
    2.9210   -1.6309    0.6081 C   0  0
    0.7632   -0.4815    1.9518 C   0  0
    4.0358   -2.2255   -0.0881 C   0  0
    5.1500   -3.9480   -0.8236 C   0  0
    5.3887   -5.3376   -1.0166 C   0  0
    7.5644   -7.7481   -2.4195 C   0  0
    6.4324   -5.8210   -1.6661 N   0  0
    7.4876   -9.1287   -2.4205 N   0  0
    6.4982   -7.1685   -1.7521 N   0  0
   -0.3351    0.1035    2.6354 N   0  3
   -0.4033    1.3538    2.7190 O   0  5
    8.4823   -7.1292   -2.9558 O   0  0
   -1.2078   -0.6456    3.1372 O   0  0
    4.0365   -3.5835   -0.1353 O   0  0
    3.5817    0.4038    0.2782 H   0  0
    1.9996   -3.5269    1.0991 H   0  0
    1.6816    1.4142    1.4602 H   0  0
    0.1004   -2.5136    2.2815 H   0  0
    5.3900   -0.6749   -0.8576 H   0  0
    6.7838   -2.8303   -1.7779 H   0  0
    4.6494   -6.0793   -0.5934 H   0  0
    6.7209   -9.6187   -1.9719 H   0  0
    8.1984   -9.6948   -2.8717 H   0  0
    5.7630   -7.7229   -1.3253 H   0  0
  1  3  2  0
  1  7  1  0
  2  4  1  0
  2  7  2  0
  3  8  1  0
  4  8  2  0
  5  6  1  0
  5  9  2  0
  6 10  2  0
  7  9  1  0
  8 16  1  0
  9 20  1  0
 10 11  1  0
 10 20  1  0
 11 13  2  0
 12 14  1  0
 12 15  1  0
 12 18  2  0
 13 15  1  0
 16 17  1  0
 16 19  2  0
  1 21  1  0
  2 22  1  0
  3 23  1  0
  4 24  1  0
  5 25  1  0
  6 26  1  0
 11 27  1  0
 14 28  1  0
 14 29  1  0
 15 30  1  0
M  CHG  2  16   1  17  -1
M  END
> <Name>
BR020282

$$$$
BR020283
  SciTegic05062102053D

 30 31  0  0  0  0            999 V2000
    2.8242   -0.2433    0.7139 C   0  0
    1.9389   -2.4437    1.1743 C   0  0
    1.7453    0.3313    1.3857 C   0  0
    0.8600   -1.8690    1.8461 C   0  0
    5.1367   -1.7188   -0.7386 C   0  0
    5.8603   -2.8375   -1.2165 C   0  0
    2.9210   -1.6309    0.6081 C   0  0
    0.7632   -0.4815    1.9518 C   0  0
    4.0358   -2.2255   -0.0881 C   0  0
    5.1500   -3.9480   -0.8236 C   0  0
    5.3887   -5.3376   -1.0166 C   0  0
    7.5384   -7.7822   -2.4126 C   0  0
    6.4315   -5.8196   -1.6681 N   0  0
    8.4906   -6.9669   -2.9630 N   0  0
    6.4991   -7.1696   -1.7578 N   0  0
   -0.3351    0.1035    2.6354 N   0  3
   -0.4033    1.3538    2.7190 O   0  5
   -1.2078   -0.6456    3.1372 O   0  0
    4.0365   -3.5835   -0.1353 O   0  0
    7.6360   -9.4465   -2.5334 S   0  0
    3.5817    0.4038    0.2782 H   0  0
    1.9996   -3.5269    1.0991 H   0  0
    1.6816    1.4142    1.4602 H   0  0
    0.1004   -2.5136    2.2815 H   0  0
    5.3900   -0.6749   -0.8576 H   0  0
    6.7838   -2.8303   -1.7779 H   0  0
    4.6496   -6.0797   -0.5935 H   0  0
    8.4286   -5.9569   -2.8902 H   0  0
    9.2873   -7.3468   -3.4630 H   0  0
    5.7588   -7.7150   -1.3272 H   0  0
  1  3  2  0
  1  7  1  0
  2  4  1  0
  2  7  2  0
  3  8  1  0
  4  8  2  0
  5  6  1  0
  5  9  2  0
  6 10  2  0
  7  9  1  0
  8 16  1  0
  9 19  1  0
 10 11  1  0
 10 19  1  0
 11 13  2  0
 12 14  1  0
 12 15  1  0
 12 20  2  0
 13 15  1  0
 16 17  1  0
 16 18  2  0
  1 21  1  0
  2 22  1  0
  3 23  1  0
  4 24  1  0
  5 25  1  0
  6 26  1  0
 11 27  1  0
 14 28  1  0
 14 29  1  0
 15 30  1  0
M  CHG  2  16   1  17  -1
M  END
> <Name>
BR020283

$$$$
BR020284
  SciTegic05062102053D

 35 36  0  0  0  0            999 V2000
    1.8851   -1.0363   -0.1124 C   0  0
    2.8783   -1.6520    2.0022 C   0  0
    0.8066   -0.4630    0.5610 C   0  0
    1.7997   -1.0786    2.6757 C   0  0
    4.3691   -2.3653   -1.4153 C   0  0
    5.6080   -3.0492   -1.4394 C   0  0
    2.9210   -1.6309    0.6081 C   0  0
    0.7638   -0.4841    1.9551 C   0  0
    4.0364   -2.2241   -0.0882 C   0  0
    5.9442   -3.2769   -0.1252 C   0  0
    7.0703   -3.9181    0.4631 C   0  0
   -0.5308    0.1640    4.0113 C   0  0
   10.1258   -5.5856   -0.1659 C   0  0
   -1.8244    0.8670    4.3381 C   0  0
    8.0630   -4.4438   -0.2317 N   0  0
   11.0482   -6.1233    0.7128 N   0  0
   -0.3150    0.0893    2.6288 N   0  0
    9.0514   -5.0128    0.4942 N   0  0
    0.1956   -0.2616    4.9036 O   0  0
   10.2649   -5.6240   -1.3876 O   0  0
    4.9914   -2.7770    0.7048 O   0  0
    1.9042   -1.0122   -1.1995 H   0  0
    3.6782   -2.1116    2.5779 H   0  0
    0.0045   -0.0029   -0.0105 H   0  0
    1.7776   -1.1017    3.7623 H   0  0
    3.7936   -2.0215   -2.2630 H   0  0
    6.1805   -3.3390   -2.3091 H   0  0
    7.1292   -3.9865    1.5890 H   0  0
   -2.6387    0.1388    4.3895 H   0  0
   -2.0537    1.6008    3.5602 H   0  0
   -1.7355    1.3854    5.2974 H   0  0
   10.9130   -6.0805    1.7172 H   0  0
   11.8907   -6.5784    0.3777 H   0  0
   -1.0452    0.5117    2.0438 H   0  0
    8.9811   -5.0065    1.5067 H   0  0
  1  3  2  0
  1  7  1  0
  2  4  1  0
  2  7  2  0
  3  8  1  0
  4  8  2  0
  5  6  1  0
  5  9  2  0
  6 10  2  0
  7  9  1  0
  8 17  1  0
  9 21  1  0
 10 11  1  0
 10 21  1  0
 11 15  2  0
 12 14  1  0
 12 17  1  0
 12 19  2  0
 13 16  1  0
 13 18  1  0
 13 20  2  0
 15 18  1  0
  1 22  1  0
  2 23  1  0
  3 24  1  0
  4 25  1  0
  5 26  1  0
  6 27  1  0
 11 28  1  0
 14 29  1  0
 14 30  1  0
 14 31  1  0
 16 32  1  0
 16 33  1  0
 17 34  1  0
 18 35  1  0
M  END
> <Name>
BR020284

$$$$
BR020285
  SciTegic05062102053D

 35 36  0  0  0  0            999 V2000
    1.8851   -1.0363   -0.1124 C   0  0
    2.8783   -1.6520    2.0022 C   0  0
    0.8066   -0.4630    0.5610 C   0  0
    1.7997   -1.0786    2.6757 C   0  0
    4.3691   -2.3653   -1.4153 C   0  0
    5.6080   -3.0492   -1.4394 C   0  0
    2.9210   -1.6309    0.6081 C   0  0
    0.7638   -0.4841    1.9551 C   0  0
    4.0364   -2.2241   -0.0882 C   0  0
    5.9442   -3.2769   -0.1252 C   0  0
    7.0703   -3.9181    0.4631 C   0  0
   -0.5308    0.1640    4.0113 C   0  0
   10.1326   -5.5981   -0.1249 C   0  0
   -1.8244    0.8670    4.3381 C   0  0
    8.0612   -4.4453   -0.2329 N   0  0
   10.1551   -5.5675   -1.4934 N   0  0
   -0.3150    0.0893    2.6288 N   0  0
    9.0521   -5.0180    0.4919 N   0  0
    0.1956   -0.2616    4.9036 O   0  0
    4.9914   -2.7770    0.7048 O   0  0
   11.3630   -6.3102    0.7544 S   0  0
    1.9042   -1.0122   -1.1995 H   0  0
    3.6782   -2.1116    2.5779 H   0  0
    0.0045   -0.0029   -0.0105 H   0  0
    1.7776   -1.1017    3.7623 H   0  0
    3.7936   -2.0215   -2.2630 H   0  0
    6.1805   -3.3390   -2.3091 H   0  0
    7.1295   -3.9867    1.5891 H   0  0
   -2.6387    0.1388    4.3895 H   0  0
   -2.0537    1.6008    3.5602 H   0  0
   -1.7355    1.3854    5.2974 H   0  0
    9.4064   -5.1365   -2.0254 H   0  0
   10.9201   -5.9767   -2.0191 H   0  0
   -1.0452    0.5117    2.0438 H   0  0
    8.9724   -5.0062    1.5040 H   0  0
  1  3  2  0
  1  7  1  0
  2  4  1  0
  2  7  2  0
  3  8  1  0
  4  8  2  0
  5  6  1  0
  5  9  2  0
  6 10  2  0
  7  9  1  0
  8 17  1  0
  9 20  1  0
 10 11  1  0
 10 20  1  0
 11 15  2  0
 12 14  1  0
 12 17  1  0
 12 19  2  0
 13 16  1  0
 13 18  1  0
 13 21  2  0
 15 18  1  0
  1 22  1  0
  2 23  1  0
  3 24  1  0
  4 25  1  0
  5 26  1  0
  6 27  1  0
 11 28  1  0
 14 29  1  0
 14 30  1  0
 14 31  1  0
 16 32  1  0
 16 33  1  0
 17 34  1  0
 18 35  1  0
M  END
> <Name>
BR020285

$$$$
BR020286
  SciTegic05062102053D

 37 39  0  0  0  0            999 V2000
    2.8177   -0.2435    0.7091 C   0  0
    1.9456   -2.4464    1.1818 C   0  0
    6.4666   -5.8343   -1.6676 C   0  0
    4.4290   -6.2514   -0.4382 C   0  0
    1.7389    0.3283    1.3835 C   0  0
    0.8668   -1.8746    1.8563 C   0  0
    6.6547   -7.2078   -1.8218 C   0  0
    4.6170   -7.6249   -0.5926 C   0  0
    5.1347   -1.7131   -0.7425 C   0  0
    5.8631   -2.8301   -1.2167 C   0  0
    2.9210   -1.6309    0.6081 C   0  0
    5.3537   -5.3561   -0.9757 C   0  0
    0.7635   -0.4872    1.9572 C   0  0
    5.7299   -8.1031   -1.2844 C   0  0
    4.0374   -2.2226   -0.0881 C   0  0
    5.1591   -3.9425   -0.8181 C   0  0
   -0.3606    0.1091    2.6614 C   0  0
    5.9255   -9.5351   -1.4464 C   0  0
   -1.3062   -0.7487    3.2157 N   0  0
    4.9738  -10.3855   -0.8912 N   0  0
   -0.4869    1.3428    2.7539 O   0  0
    6.9160   -9.9904   -2.0447 O   0  0
    4.0449   -3.5808   -0.1294 O   0  0
    3.5699    0.4052    0.2666 H   0  0
    2.0115   -3.5295    1.1122 H   0  0
    7.1964   -5.1487   -2.0916 H   0  0
    3.5562   -5.8950    0.1036 H   0  0
    1.6681    1.4107    1.4568 H   0  0
    0.1119   -2.5189    2.2994 H   0  0
    7.5251   -7.5700   -2.3631 H   0  0
    3.8908   -8.3141   -0.1696 H   0  0
    5.3831   -0.6684   -0.8654 H   0  0
    6.7863   -2.8198   -1.7789 H   0  0
   -1.1866   -1.7507    3.1143 H   0  0
   -2.1128   -0.3936    3.7190 H   0  0
    4.1823   -9.9886   -0.3965 H   0  0
    5.0544  -11.3941   -0.9703 H   0  0
  1  5  2  0
  1 11  1  0
  2  6  1  0
  2 11  2  0
  3  7  1  0
  3 12  2  0
  4  8  2  0
  4 12  1  0
  5 13  1  0
  6 13  2  0
  7 14  2  0
  8 14  1  0
  9 10  1  0
  9 15  2  0
 10 16  2  0
 11 15  1  0
 12 16  1  0
 13 17  1  0
 14 18  1  0
 15 23  1  0
 16 23  1  0
 17 19  1  0
 17 21  2  0
 18 20  1  0
 18 22  2  0
  1 24  1  0
  2 25  1  0
  3 26  1  0
  4 27  1  0
  5 28  1  0
  6 29  1  0
  7 30  1  0
  8 31  1  0
  9 32  1  0
 10 33  1  0
 19 34  1  0
 19 35  1  0
 20 36  1  0
 20 37  1  0
M  END
> <Name>
BR020286

$$$$
BR020287
  SciTegic05062102053D

 41 43  0  0  0  0            999 V2000
    2.8210   -0.2434    0.7113 C   0  0
    1.9424   -2.4449    1.1785 C   0  0
    6.4584   -5.8382   -1.6724 C   0  0
    4.4199   -6.2532   -0.4439 C   0  0
    1.7424    0.3300    1.3846 C   0  0
    0.8638   -1.8716    1.8518 C   0  0
    6.6445   -7.2118   -1.8277 C   0  0
    4.6059   -7.6268   -0.5992 C   0  0
    5.1353   -1.7158   -0.7411 C   0  0
    5.8615   -2.8337   -1.2168 C   0  0
    2.9210   -1.6309    0.6081 C   0  0
    5.3461   -5.3589   -0.9804 C   0  0
    0.7638   -0.4841    1.9549 C   0  0
    5.7182   -8.1061   -1.2912 C   0  0
    4.0364   -2.2239   -0.0883 C   0  0
    5.1547   -3.9451   -0.8205 C   0  0
   -0.3896    0.1291    2.6744 C   0  0
    5.9175   -9.5747   -1.4569 C   0  0
   -1.5564    0.4073    1.7921 N   0  3
    6.7067  -10.1922   -0.3554 N   0  3
    4.0408   -3.5820   -0.1320 O   0  0
    3.5756    0.4047    0.2718 H   0  0
    2.0064   -3.5281    1.1069 H   0  0
    7.1895   -5.1538   -2.0963 H   0  0
    3.5476   -5.8951    0.0978 H   0  0
    1.6723    1.4119    1.4598 H   0  0
    0.1061   -2.5138    2.2930 H   0  0
    7.5141   -7.5764   -2.3680 H   0  0
    3.8790   -8.3161   -0.1777 H   0  0
    5.3862   -0.6714   -0.8620 H   0  0
    6.7850   -2.8244   -1.7783 H   0  0
   -0.7594   -0.5235    3.4771 H   0  0
   -0.1158    1.0885    3.1343 H   0  0
    4.9599  -10.1123   -1.4882 H   0  0
    6.4530   -9.8079   -2.3874 H   0  0
   -1.9715   -0.4659    1.4558 H   0  0
   -1.2704    0.9602    0.9793 H   0  0
   -2.2760    0.9302    2.2987 H   0  0
    6.1260  -10.8364    0.1881 H   0  0
    7.0664   -9.4727    0.2779 H   0  0
    7.5022  -10.7161   -0.7306 H   0  0
  1  5  2  0
  1 11  1  0
  2  6  1  0
  2 11  2  0
  3  7  1  0
  3 12  2  0
  4  8  2  0
  4 12  1  0
  5 13  1  0
  6 13  2  0
  7 14  2  0
  8 14  1  0
  9 10  1  0
  9 15  2  0
 10 16  2  0
 11 15  1  0
 12 16  1  0
 13 17  1  0
 14 18  1  0
 15 21  1  0
 16 21  1  0
 17 19  1  0
 18 20  1  0
  1 22  1  0
  2 23  1  0
  3 24  1  0
  4 25  1  0
  5 26  1  0
  6 27  1  0
  7 28  1  0
  8 29  1  0
  9 30  1  0
 10 31  1  0
 17 32  1  0
 17 33  1  0
 18 34  1  0
 18 35  1  0
 19 36  1  0
 19 37  1  0
 19 38  1  0
 20 39  1  0
 20 40  1  0
 20 41  1  0
M  CHG  2  19   1  20   1
M  END
> <Name>
BR020287

$$$$
BR020288
  SciTegic05062102053D

 49 51  0  0  0  0            999 V2000
    2.8210   -0.2434    0.7113 C   0  0
    1.9424   -2.4449    1.1785 C   0  0
    6.4584   -5.8382   -1.6724 C   0  0
    4.4199   -6.2532   -0.4439 C   0  0
    1.7424    0.3300    1.3846 C   0  0
    0.8638   -1.8716    1.8518 C   0  0
    6.6445   -7.2118   -1.8277 C   0  0
    4.6059   -7.6268   -0.5992 C   0  0
    5.1353   -1.7158   -0.7411 C   0  0
    5.8615   -2.8337   -1.2168 C   0  0
    2.9210   -1.6309    0.6081 C   0  0
    5.3461   -5.3589   -0.9804 C   0  0
    0.7638   -0.4841    1.9549 C   0  0
    5.7182   -8.1061   -1.2912 C   0  0
    4.0364   -2.2239   -0.0883 C   0  0
    5.1547   -3.9451   -0.8205 C   0  0
   -0.0841   -0.1394    5.1274 C   0  0
    4.3409  -10.4449   -3.1715 C   0  0
    0.3464    0.5788    6.3632 C   0  0
    4.2429  -10.8641   -4.6008 C   0  0
   -0.3896    0.1291    2.6744 C   0  0
    5.9175   -9.5747   -1.4569 C   0  0
   -0.0218    0.6263    3.9759 N   0  0
    5.6029  -10.0234   -2.7896 N   0  0
   -0.4476   -1.3072    5.2030 O   0  0
    3.3463  -10.4954   -2.4575 O   0  0
    4.0408   -3.5820   -0.1320 O   0  0
    3.5756    0.4047    0.2718 H   0  0
    2.0064   -3.5281    1.1069 H   0  0
    7.1895   -5.1538   -2.0963 H   0  0
    3.5476   -5.8951    0.0978 H   0  0
    1.6723    1.4119    1.4598 H   0  0
    0.1061   -2.5138    2.2930 H   0  0
    7.5141   -7.5764   -2.3680 H   0  0
    3.8790   -8.3161   -0.1777 H   0  0
    5.3862   -0.6714   -0.8620 H   0  0
    6.7850   -2.8244   -1.7783 H   0  0
   -0.4904    1.0906    6.8652 H   0  0
    0.7674   -0.1022    7.1202 H   0  0
    1.1134    1.3555    6.2139 H   0  0
    4.4543  -11.9365   -4.7400 H   0  0
    3.2339  -10.7100   -5.0159 H   0  0
    4.9234  -10.3425   -5.2927 H   0  0
   -0.8088    0.9712    2.1060 H   0  0
   -1.2049   -0.5933    2.8184 H   0  0
    6.9588   -9.8591   -1.2503 H   0  0
    5.2886  -10.1478   -0.7617 H   0  0
    0.2999    1.5887    4.0524 H   0  0
    6.3458  -10.0307   -3.4850 H   0  0
  1  5  2  0
  1 11  1  0
  2  6  1  0
  2 11  2  0
  3  7  1  0
  3 12  2  0
  4  8  2  0
  4 12  1  0
  5 13  1  0
  6 13  2  0
  7 14  2  0
  8 14  1  0
  9 10  1  0
  9 15  2  0
 10 16  2  0
 11 15  1  0
 12 16  1  0
 13 21  1  0
 14 22  1  0
 15 27  1  0
 16 27  1  0
 17 19  1  0
 17 23  1  0
 17 25  2  0
 18 20  1  0
 18 24  1  0
 18 26  2  0
 21 23  1  0
 22 24  1  0
  1 28  1  0
  2 29  1  0
  3 30  1  0
  4 31  1  0
  5 32  1  0
  6 33  1  0
  7 34  1  0
  8 35  1  0
  9 36  1  0
 10 37  1  0
 19 38  1  0
 19 39  1  0
 19 40  1  0
 20 41  1  0
 20 42  1  0
 20 43  1  0
 21 44  1  0
 21 45  1  0
 22 46  1  0
 22 47  1  0
 23 48  1  0
 24 49  1  0
M  END
> <Name>
BR020288

$$$$
BR020289
  SciTegic05062102053D

 34 36  0  0  1  0            999 V2000
   -0.0057    1.6986    1.8463 C   0  0
    0.0480    1.1186    0.4446 C   0  0  2  0  0  0
   -0.9184   -0.0351    0.2122 C   0  0  1  0  0  0
   -0.2565   -0.7519   -0.9395 C   0  0  2  0  0  0
    1.2167   -0.5873   -0.6464 C   0  0  2  0  0  0
   -1.0970   -0.2930    2.5865 C   0  0
    0.8099   -0.0756   -2.8319 C   0  0
   -2.5017    0.2941    2.7671 C   0  0
   -0.8903   -1.3916    3.6328 C   0  0
    1.1052    1.3124   -3.3835 C   0  0
    0.7584   -1.1123   -3.9487 C   0  0
   -0.0687    0.6724    2.8320 O   0  0
    1.3588    0.5760    0.1880 O   0  0
   -0.9486   -0.9340    1.3178 O   0  0
   -0.4560   -0.0453   -2.1626 O   0  0
    1.8458   -0.4460   -1.9146 O   0  0
    0.8935    2.2883    2.0526 H   0  0
   -0.8689    2.3613    1.9651 H   0  0
   -0.1049    1.9175   -0.2906 H   0  0
   -1.9300    0.3108   -0.0218 H   0  0
   -0.5518   -1.7977   -1.0703 H   0  0
    1.6465   -1.4368   -0.1070 H   0  0
   -2.6657    1.0769    2.0311 H   0  0
   -2.5950    0.7123    3.7659 H   0  0
   -3.2430   -0.4892    2.6326 H   0  0
    0.1025   -1.8208    3.5203 H   0  0
   -1.6365   -2.1707    3.4966 H   0  0
   -0.9888   -0.9692    4.6301 H   0  0
    1.1379    2.0385   -2.5707 H   0  0
    0.3280    1.6074   -4.0891 H   0  0
    2.0672    1.3138   -3.8969 H   0  0
    0.5462   -2.0968   -3.5326 H   0  0
    1.7153   -1.1460   -4.4689 H   0  0
   -0.0238   -0.8524   -4.6614 H   0  0
  1  2  1  0
  1 12  1  0
  2  3  1  0
  2 13  1  0
  3  4  1  0
  3 14  1  0
  4  5  1  0
  4 15  1  0
  5 13  1  0
  5 16  1  0
  6  8  1  0
  6  9  1  0
  6 12  1  0
  6 14  1  0
  7 10  1  0
  7 11  1  0
  7 15  1  0
  7 16  1  0
  1 17  1  0
  1 18  1  0
  2 19  1  0
  3 20  1  0
  4 21  1  0
  5 22  1  0
  8 23  1  0
  8 24  1  0
  8 25  1  0
  9 26  1  0
  9 27  1  0
  9 28  1  0
 10 29  1  0
 10 30  1  0
 10 31  1  0
 11 32  1  0
 11 33  1  0
 11 34  1  0
M  END
> <Name>
BR020289

$$$$
BR020290
  SciTegic05062102053D

 27 28  0  0  1  0            999 V2000
   -1.0397    1.2611    1.4680 C   0  0  2  0  0  0
   -0.2098    0.0657    1.0720 C   0  0  2  0  0  0
   -1.0910   -1.0903    1.5387 C   0  0  1  0  0  0
   -1.7098    0.8153    2.7452 C   0  0  2  0  0  0
   -3.2560    1.7671    1.3668 C   0  0
   -4.4475    0.9586    0.8718 C   0  0
   -3.5327    3.2639    1.2831 C   0  0
   -0.3587   -2.3799    1.8619 C   0  0
   -2.1185    1.4546    0.5538 O   0  0
   -1.7712   -0.6206    2.7185 O   0  0
   -2.9938    1.4283    2.7339 O   0  0
    1.0192    0.0857    1.7854 O   0  0
   -1.3028   -3.3489    2.2885 O   0  0
   -0.4857    2.1985    1.5794 H   0  0
   -0.0013    0.0086   -0.0008 H   0  0
   -1.8635   -1.2914    0.7887 H   0  0
   -1.1619    1.1092    3.6456 H   0  0
   -4.2298   -0.1076    0.9397 H   0  0
   -4.6634    1.2093   -0.1671 H   0  0
   -5.3265    1.1788    1.4783 H   0  0
   -2.6685    3.8227    1.6417 H   0  0
   -4.3975    3.5171    1.8960 H   0  0
   -3.7347    3.5477    0.2505 H   0  0
    0.3667   -2.2147    2.6623 H   0  0
    0.1596   -2.7551    0.9761 H   0  0
    1.4690    0.9123    1.5462 H   0  0
   -0.8057   -4.1598    2.4872 H   0  0
  1  2  1  0
  1  4  1  0
  1  9  1  0
  2  3  1  0
  2 12  1  0
  3  8  1  0
  3 10  1  0
  4 10  1  0
  4 11  1  0
  5  6  1  0
  5  7  1  0
  5  9  1  0
  5 11  1  0
  8 13  1  0
  1 14  1  0
  2 15  1  0
  3 16  1  0
  4 17  1  0
  6 18  1  0
  6 19  1  0
  6 20  1  0
  7 21  1  0
  7 22  1  0
  7 23  1  0
  8 24  1  0
  8 25  1  0
 12 26  1  0
 13 27  1  0
M  END
> <Name>
BR020290

$$$$
BR020291
  SciTegic05062102053D

 39 41  0  0  1  0            999 V2000
    1.5042   -5.5349   -2.5641 C   0  0
    2.7842   -5.1017   -2.9096 C   0  0
    0.9473   -5.1600   -1.3414 C   0  0
    3.5075   -4.2936   -2.0324 C   0  0
    1.6705   -4.3519   -0.4642 C   0  0
    2.9506   -3.9187   -0.8096 C   0  0
    1.0201   -3.9891    0.8203 C   0  0
   -1.0397    1.2611    1.4680 C   0  0  2  0  0  0
   -0.2098    0.0657    1.0720 C   0  0  2  0  0  0
   -1.0910   -1.0903    1.5387 C   0  0  1  0  0  0
   -1.7098    0.8153    2.7452 C   0  0  2  0  0  0
   -3.2560    1.7671    1.3668 C   0  0
   -4.4475    0.9586    0.8718 C   0  0
   -3.5327    3.2639    1.2831 C   0  0
   -0.3587   -2.3799    1.8619 C   0  0
    1.1261   -4.6574    1.8369 O   0  0
   -2.1185    1.4546    0.5538 O   0  0
   -1.7712   -0.6206    2.7185 O   0  0
   -2.9938    1.4283    2.7339 O   0  0
    1.0192    0.0857    1.7854 O   0  0
    0.3100   -2.8323    0.6957 O   0  0
    4.0943   -2.7050    0.4564 I   0  0
    0.9419   -6.1642   -3.2474 H   0  0
    3.2171   -5.3934   -3.8619 H   0  0
   -0.0514   -5.5050   -1.0859 H   0  0
    4.5031   -3.9692   -2.3248 H   0  0
   -0.4857    2.1985    1.5794 H   0  0
   -0.0013    0.0086   -0.0008 H   0  0
   -1.8635   -1.2914    0.7887 H   0  0
   -1.1619    1.1092    3.6456 H   0  0
   -4.2298   -0.1076    0.9397 H   0  0
   -4.6634    1.2093   -0.1671 H   0  0
   -5.3265    1.1788    1.4783 H   0  0
   -2.6685    3.8227    1.6417 H   0  0
   -4.3975    3.5171    1.8960 H   0  0
   -3.7347    3.5477    0.2505 H   0  0
   -1.0659   -3.1475    2.1859 H   0  0
    0.3783   -2.2113    2.6509 H   0  0
    1.4690    0.9123    1.5462 H   0  0
  1  2  1  0
  1  3  2  0
  2  4  2  0
  3  5  1  0
  4  6  1  0
  5  6  2  0
  5  7  1  0
  6 22  1  0
  7 16  2  0
  7 21  1  0
  8  9  1  0
  8 11  1  0
  8 17  1  0
  9 10  1  0
  9 20  1  0
 10 15  1  0
 10 18  1  0
 11 18  1  0
 11 19  1  0
 12 13  1  0
 12 14  1  0
 12 17  1  0
 12 19  1  0
 15 21  1  0
  1 23  1  0
  2 24  1  0
  3 25  1  0
  4 26  1  0
  8 27  1  0
  9 28  1  0
 10 29  1  0
 11 30  1  0
 13 31  1  0
 13 32  1  0
 13 33  1  0
 14 34  1  0
 14 35  1  0
 14 36  1  0
 15 37  1  0
 15 38  1  0
 20 39  1  0
M  END
> <Name>
BR020291

$$$$
BR020292
  SciTegic05062102053D

 43 45  0  0  1  0            999 V2000
   -4.6577   -9.4712    4.6861 C   0  0
   -5.0205   -8.3516    3.9375 C   0  0
   -3.3195   -9.6860    5.0161 C   0  0
   -4.0450   -7.4467    3.5188 C   0  0
   -2.3441   -8.7811    4.5973 C   0  0
   -2.7068   -7.6614    3.8487 C   0  0
   -1.6760   -6.7058    3.4066 C   0  0
   -1.9199   -5.4415    3.0332 C   0  0
   -0.7946   -4.5734    2.6184 C   0  0
   -1.0397    1.2611    1.4680 C   0  0  2  0  0  0
   -0.2098    0.0657    1.0720 C   0  0  2  0  0  0
   -1.0910   -1.0903    1.5387 C   0  0  1  0  0  0
   -1.7098    0.8153    2.7452 C   0  0  2  0  0  0
   -3.2560    1.7671    1.3668 C   0  0
   -4.4475    0.9586    0.8718 C   0  0
   -3.5327    3.2639    1.2831 C   0  0
   -0.3587   -2.3799    1.8619 C   0  0
    0.3795   -4.9054    2.5803 O   0  0
   -2.1185    1.4546    0.5538 O   0  0
   -1.7712   -0.6206    2.7185 O   0  0
   -2.9938    1.4283    2.7339 O   0  0
    1.0192    0.0857    1.7854 O   0  0
   -1.3028   -3.3489    2.2885 O   0  0
   -5.4173  -10.1751    5.0132 H   0  0
   -6.0626   -8.1836    3.6814 H   0  0
   -3.0371  -10.5571    5.5999 H   0  0
   -4.3433   -6.5785    2.9358 H   0  0
   -1.3052   -8.9622    4.8625 H   0  0
   -0.6568   -7.0858    3.4168 H   0  0
   -2.9171   -5.0153    3.0307 H   0  0
   -0.4857    2.1985    1.5794 H   0  0
   -0.0013    0.0086   -0.0008 H   0  0
   -1.8635   -1.2914    0.7887 H   0  0
   -1.1619    1.1092    3.6456 H   0  0
   -4.2298   -0.1076    0.9397 H   0  0
   -4.6634    1.2093   -0.1671 H   0  0
   -5.3265    1.1788    1.4783 H   0  0
   -2.6685    3.8227    1.6417 H   0  0
   -4.3975    3.5171    1.8960 H   0  0
   -3.7347    3.5477    0.2505 H   0  0
    0.3667   -2.2147    2.6623 H   0  0
    0.1596   -2.7551    0.9761 H   0  0
    1.4690    0.9123    1.5462 H   0  0
  1  2  1  0
  1  3  2  0
  2  4  2  0
  3  5  1  0
  4  6  1  0
  5  6  2  0
  6  7  1  0
  7  8  2  0
  8  9  1  0
  9 18  2  0
  9 23  1  0
 10 11  1  0
 10 13  1  0
 10 19  1  0
 11 12  1  0
 11 22  1  0
 12 17  1  0
 12 20  1  0
 13 20  1  0
 13 21  1  0
 14 15  1  0
 14 16  1  0
 14 19  1  0
 14 21  1  0
 17 23  1  0
  1 24  1  0
  2 25  1  0
  3 26  1  0
  4 27  1  0
  5 28  1  0
  7 29  1  0
  8 30  1  0
 10 31  1  0
 11 32  1  0
 12 33  1  0
 13 34  1  0
 15 35  1  0
 15 36  1  0
 15 37  1  0
 16 38  1  0
 16 39  1  0
 16 40  1  0
 17 41  1  0
 17 42  1  0
 22 43  1  0
M  END
> <Name>
BR020292

$$$$
BR020293
  SciTegic05062102053D

 55 58  0  0  1  0            999 V2000
    6.4336   -2.2017    7.3915 C   0  0
    5.0960   -1.8176    7.4860 C   0  0
    6.8845   -2.8869    6.2633 C   0  0
    4.3546    1.2597    4.0592 C   0  0
    5.5204    0.5997    3.6705 C   0  0
    4.2092   -2.1189    6.4523 C   0  0
    5.9977   -3.1881    5.2296 C   0  0
    3.2421    1.2642    3.2179 C   0  0
    5.5736   -0.0557    2.4403 C   0  0
    4.6601   -2.8041    5.3241 C   0  0
    3.2953    0.6088    1.9877 C   0  0
    4.4610   -0.0512    1.5989 C   0  0
    3.7237   -3.1227    4.2319 C   0  0
    2.5545   -2.5000    4.0256 C   0  0
    2.0769    0.6516    1.1403 C   0  0
    1.7039   -2.9050    2.8835 C   0  0
   -1.0397    1.2611    1.4680 C   0  0  2  0  0  0
   -0.2098    0.0657    1.0720 C   0  0  2  0  0  0
   -1.0910   -1.0903    1.5387 C   0  0  1  0  0  0
   -1.7098    0.8153    2.7452 C   0  0  2  0  0  0
   -3.2560    1.7671    1.3668 C   0  0
   -4.4475    0.9586    0.8718 C   0  0
   -3.5327    3.2639    1.2831 C   0  0
   -0.3587   -2.3799    1.8619 C   0  0
    2.0575    1.1351    0.0190 O   0  0
    1.9698   -3.7834    2.0785 O   0  0
   -2.1185    1.4546    0.5538 O   0  0
   -1.7712   -0.6206    2.7185 O   0  0
   -2.9938    1.4283    2.7339 O   0  0
    1.0192    0.0857    1.7854 O   0  0
    0.5804   -2.1277    2.8946 O   0  0
    4.6138   -1.0550   -0.2321 I   0  0
    7.1243   -1.9660    8.1958 H   0  0
    4.7450   -1.2830    8.3640 H   0  0
    7.9262   -3.1849    6.1890 H   0  0
    4.3140    1.7699    5.0168 H   0  0
    6.3861    0.5960    4.3261 H   0  0
    3.1694   -1.8130    6.5405 H   0  0
    6.3643   -3.7228    4.3566 H   0  0
    2.3404    1.7824    3.5343 H   0  0
    6.4937   -0.5626    2.1603 H   0  0
    4.0500   -3.9107    3.5567 H   0  0
    2.2021   -1.6941    4.6599 H   0  0
   -0.4857    2.1985    1.5794 H   0  0
   -0.0013    0.0086   -0.0008 H   0  0
   -1.8635   -1.2914    0.7887 H   0  0
   -1.1619    1.1092    3.6456 H   0  0
   -4.2298   -0.1076    0.9397 H   0  0
   -4.6634    1.2093   -0.1671 H   0  0
   -5.3265    1.1788    1.4783 H   0  0
   -2.6685    3.8227    1.6417 H   0  0
   -4.3975    3.5171    1.8960 H   0  0
   -3.7347    3.5477    0.2505 H   0  0
    0.1730   -2.7462    0.9803 H   0  0
   -1.0637   -3.1426    2.2016 H   0  0
  1  2  1  0
  1  3  2  0
  2  6  2  0
  3  7  1  0
  4  5  2  0
  4  8  1  0
  5  9  1  0
  6 10  1  0
  7 10  2  0
  8 11  2  0
  9 12  2  0
 10 13  1  0
 11 12  1  0
 11 15  1  0
 12 32  1  0
 13 14  2  0
 14 16  1  0
 15 25  2  0
 15 30  1  0
 16 26  2  0
 16 31  1  0
 17 18  1  0
 17 20  1  0
 17 27  1  0
 18 19  1  0
 18 30  1  0
 19 24  1  0
 19 28  1  0
 20 28  1  0
 20 29  1  0
 21 22  1  0
 21 23  1  0
 21 27  1  0
 21 29  1  0
 24 31  1  0
  1 33  1  0
  2 34  1  0
  3 35  1  0
  4 36  1  0
  5 37  1  0
  6 38  1  0
  7 39  1  0
  8 40  1  0
  9 41  1  0
 13 42  1  0
 14 43  1  0
 17 44  1  0
 18 45  1  0
 19 46  1  0
 20 47  1  0
 22 48  1  0
 22 49  1  0
 22 50  1  0
 23 51  1  0
 23 52  1  0
 23 53  1  0
 24 54  1  0
 24 55  1  0
M  END
> <Name>
BR020293

$$$$
BR020294
  SciTegic05062102053D

 52 55  0  0  1  0            999 V2000
   -6.9142    1.3869    7.1661 C   0  0
   -6.1628    0.2958    6.7297 C   0  0
   -6.5255    2.6825    6.8253 C   0  0
    1.7529   -4.5228    5.5550 C   0  0
    1.6136   -4.0432    6.8574 C   0  0
   -5.0226    0.5003    5.9526 C   0  0
   -5.3854    2.8870    6.0482 C   0  0
    1.7679   -3.6321    4.4816 C   0  0
    1.4892   -2.6729    7.0864 C   0  0
   -4.6339    1.7959    5.6118 C   0  0
    1.6434   -2.2618    4.7106 C   0  0
    1.5041   -1.7822    6.0130 C   0  0
   -3.4295    2.0124    4.7910 C   0  0
   -2.8611    1.0806    4.0126 C   0  0
    1.6672   -1.3686    3.5249 C   0  0
   -1.6557    1.4244    3.2247 C   0  0
   -0.5771    0.7891    0.3080 C   0  0  2  0  0  0
   -0.1260    0.4602    1.7081 C   0  0  2  0  0  0
   -0.9157   -0.5624   -0.2775 C   0  0  2  0  0  0
    0.5666   -0.8807    1.4943 C   0  0  2  0  0  0
    0.3578    0.6134   -1.7584 C   0  0
    1.7101    0.0733   -2.2037 C   0  0
   -0.1884    1.6247   -2.7597 C   0  0
    2.5016   -0.4915    3.3636 O   0  0
   -1.1050    2.5139    3.2115 O   0  0
    0.5148    1.2521   -0.4852 O   0  0
   -0.1402   -1.5437    0.4330 O   0  0
   -0.5714   -0.4726   -1.6554 O   0  0
    0.6485   -1.6675    2.6689 O   0  0
   -1.2790    0.3140    2.5275 O   0  0
    1.3120    0.2602    6.4324 I   0  0
   -7.8026    1.2277    7.7700 H   0  0
   -6.4659   -0.7131    6.9939 H   0  0
   -7.1111    3.5321    7.1640 H   0  0
    1.8494   -5.5896    5.3775 H   0  0
    1.6025   -4.7371    7.6927 H   0  0
   -4.4471   -0.3603    5.6199 H   0  0
   -5.0953    3.9029    5.7908 H   0  0
    1.8774   -4.0204    3.4722 H   0  0
    1.3817   -2.3243    8.1106 H   0  0
   -3.0148    3.0172    4.8324 H   0  0
   -3.2551    0.0741    3.9237 H   0  0
   -1.4041    1.5029    0.2399 H   0  0
    0.5400    1.2049    2.1567 H   0  0
   -1.9715   -0.8287   -0.1698 H   0  0
    1.5993   -0.7110    1.1193 H   0  0
    2.0831   -0.6472   -1.4753 H   0  0
    2.4278    0.8894   -2.2922 H   0  0
    1.6152   -0.4200   -3.1715 H   0  0
   -1.1550    1.9978   -2.4220 H   0  0
   -0.3114    1.1536   -3.7346 H   0  0
    0.5013    2.4631   -2.8556 H   0  0
  1  2  1  0
  1  3  2  0
  2  6  2  0
  3  7  1  0
  4  5  2  0
  4  8  1  0
  5  9  1  0
  6 10  1  0
  7 10  2  0
  8 11  2  0
  9 12  2  0
 10 13  1  0
 11 12  1  0
 11 15  1  0
 12 31  1  0
 13 14  2  0
 14 16  1  0
 15 24  2  0
 15 29  1  0
 16 25  2  0
 16 30  1  0
 17 18  1  0
 17 19  1  0
 17 26  1  0
 18 20  1  0
 18 30  1  0
 19 27  1  0
 19 28  1  0
 20 27  1  0
 20 29  1  0
 21 22  1  0
 21 23  1  0
 21 26  1  0
 21 28  1  0
  1 32  1  0
  2 33  1  0
  3 34  1  0
  4 35  1  0
  5 36  1  0
  6 37  1  0
  7 38  1  0
  8 39  1  0
  9 40  1  0
 13 41  1  0
 14 42  1  0
 17 43  1  0
 18 44  1  0
 19 45  1  0
 20 46  1  0
 22 47  1  0
 22 48  1  0
 22 49  1  0
 23 50  1  0
 23 51  1  0
 23 52  1  0
M  END
> <Name>
BR020294

$$$$
BR020295
  SciTegic05062102053D

 38 40  0  0  1  0            999 V2000
    0.3213   -3.0133    0.6725 C   0  0
   -0.3587   -2.3799    1.8619 C   0  0  1  0  0  0
   -1.0910   -1.0903    1.5387 C   0  0  2  0  0  0
   -1.0397    1.2611    1.4680 C   0  0  2  0  0  0
   -0.2098    0.0657    1.0720 C   0  0  1  0  0  0
   -1.7098    0.8153    2.7452 C   0  0  2  0  0  0
   -0.6413   -4.6304    1.9380 C   0  0
   -3.2560    1.7671    1.3668 C   0  0
   -0.1371   -5.3063    3.2067 C   0  0
   -1.6481   -5.5082    1.2054 C   0  0
   -4.4475    0.9586    0.8718 C   0  0
   -3.5327    3.2639    1.2831 C   0  0
    0.4805   -4.3739    1.0770 O   0  0
   -1.7712   -0.6206    2.7185 O   0  0
   -1.2805   -3.3898    2.2817 O   0  0
   -2.1185    1.4546    0.5538 O   0  0
   -2.9938    1.4283    2.7339 O   0  0
    1.0192    0.0857    1.7854 O   0  0
   -0.3056   -2.9978   -0.2261 H   0  0
    1.2921   -2.5670    0.4415 H   0  0
    0.3557   -2.2223    2.6794 H   0  0
   -1.8656   -1.2930    0.7895 H   0  0
   -0.4868    2.1989    1.5799 H   0  0
    0.0000   -0.0001    0.0000 H   0  0
   -1.1611    1.1088    3.6453 H   0  0
    0.5807   -4.6609    3.7132 H   0  0
    0.3494   -6.2497    2.9586 H   0  0
   -0.9710   -5.5048    3.8803 H   0  0
   -1.9943   -5.0049    0.3026 H   0  0
   -2.5049   -5.7096    1.8486 H   0  0
   -1.1845   -6.4548    0.9270 H   0  0
   -4.2298   -0.1076    0.9397 H   0  0
   -4.6635    1.2093   -0.1672 H   0  0
   -5.3265    1.1788    1.4783 H   0  0
   -2.6685    3.8226    1.6417 H   0  0
   -4.3975    3.5171    1.8960 H   0  0
   -3.7347    3.5476    0.2505 H   0  0
    1.5292    0.8380    1.4439 H   0  0
  1  2  1  0
  1 13  1  0
  2  3  1  0
  2 15  1  0
  3  5  1  0
  3 14  1  0
  4  5  1  0
  4  6  1  0
  4 16  1  0
  5 18  1  0
  6 14  1  0
  6 17  1  0
  7  9  1  0
  7 10  1  0
  7 13  1  0
  7 15  1  0
  8 11  1  0
  8 12  1  0
  8 16  1  0
  8 17  1  0
  1 19  1  0
  1 20  1  0
  2 21  1  0
  3 22  1  0
  4 23  1  0
  5 24  1  0
  6 25  1  0
  9 26  1  0
  9 27  1  0
  9 28  1  0
 10 29  1  0
 10 30  1  0
 10 31  1  0
 11 32  1  0
 11 33  1  0
 11 34  1  0
 12 35  1  0
 12 36  1  0
 12 37  1  0
 18 38  1  0
M  END
> <Name>
BR020295

$$$$
BR020296
  SciTegic05062102053D

 50 53  0  0  1  0            999 V2000
    4.8904   -0.7594    3.1878 C   0  0
    5.5761    0.3903    3.5793 C   0  0
    3.7510   -0.6543    2.3901 C   0  0
    5.1224    1.6453    3.1733 C   0  0
    3.2972    0.6006    1.9841 C   0  0
    3.9829    1.7505    2.3757 C   0  0
    2.0791    0.6425    1.1362 C   0  0
    0.3213   -3.0133    0.6725 C   0  0
   -0.3587   -2.3799    1.8619 C   0  0  1  0  0  0
   -1.0910   -1.0903    1.5387 C   0  0  2  0  0  0
   -1.0397    1.2611    1.4680 C   0  0  2  0  0  0
   -0.2098    0.0657    1.0720 C   0  0  1  0  0  0
   -1.7098    0.8153    2.7452 C   0  0  2  0  0  0
   -0.6413   -4.6304    1.9380 C   0  0
   -3.2560    1.7671    1.3668 C   0  0
   -0.1371   -5.3063    3.2067 C   0  0
   -1.6481   -5.5082    1.2054 C   0  0
   -4.4475    0.9586    0.8718 C   0  0
   -3.5327    3.2639    1.2831 C   0  0
    2.0618    1.1179    0.0114 O   0  0
    0.4805   -4.3739    1.0770 O   0  0
   -1.7712   -0.6206    2.7185 O   0  0
   -1.2805   -3.3898    2.2817 O   0  0
   -2.1185    1.4546    0.5538 O   0  0
   -2.9938    1.4283    2.7339 O   0  0
    1.0192    0.0857    1.7854 O   0  0
    3.3602    3.6663    1.8050 I   0  0
    5.2440   -1.7360    3.5044 H   0  0
    6.4635    0.3079    4.1999 H   0  0
    3.2270   -1.5591    2.0925 H   0  0
    5.6743    2.5262    3.4919 H   0  0
   -0.3056   -2.9978   -0.2261 H   0  0
    1.2921   -2.5670    0.4415 H   0  0
    0.3557   -2.2223    2.6794 H   0  0
   -1.8656   -1.2930    0.7895 H   0  0
   -0.4868    2.1989    1.5799 H   0  0
    0.0000   -0.0001    0.0000 H   0  0
   -1.1611    1.1088    3.6453 H   0  0
    0.5807   -4.6609    3.7132 H   0  0
    0.3494   -6.2497    2.9586 H   0  0
   -0.9710   -5.5048    3.8803 H   0  0
   -1.9943   -5.0049    0.3026 H   0  0
   -2.5049   -5.7096    1.8486 H   0  0
   -1.1845   -6.4548    0.9270 H   0  0
   -4.2298   -0.1076    0.9397 H   0  0
   -4.6635    1.2093   -0.1672 H   0  0
   -5.3265    1.1788    1.4783 H   0  0
   -2.6685    3.8226    1.6417 H   0  0
   -4.3975    3.5171    1.8960 H   0  0
   -3.7347    3.5476    0.2505 H   0  0
  1  2  1  0
  1  3  2  0
  2  4  2  0
  3  5  1  0
  4  6  1  0
  5  6  2  0
  5  7  1  0
  6 27  1  0
  7 20  2  0
  7 26  1  0
  8  9  1  0
  8 21  1  0
  9 10  1  0
  9 23  1  0
 10 12  1  0
 10 22  1  0
 11 12  1  0
 11 13  1  0
 11 24  1  0
 12 26  1  0
 13 22  1  0
 13 25  1  0
 14 16  1  0
 14 17  1  0
 14 21  1  0
 14 23  1  0
 15 18  1  0
 15 19  1  0
 15 24  1  0
 15 25  1  0
  1 28  1  0
  2 29  1  0
  3 30  1  0
  4 31  1  0
  8 32  1  0
  8 33  1  0
  9 34  1  0
 10 35  1  0
 11 36  1  0
 12 37  1  0
 13 38  1  0
 16 39  1  0
 16 40  1  0
 16 41  1  0
 17 42  1  0
 17 43  1  0
 17 44  1  0
 18 45  1  0
 18 46  1  0
 18 47  1  0
 19 48  1  0
 19 49  1  0
 19 50  1  0
M  END
> <Name>
BR020296

$$$$
BR020297
  SciTegic05062102053D

 54 57  0  0  1  0            999 V2000
    8.0195    1.0521    3.9091 C   0  0
    6.9802    0.1799    4.2328 C   0  0
    7.8855    1.9272    2.8311 C   0  0
    5.8069    0.1827    3.4785 C   0  0
    6.7121    1.9300    2.0768 C   0  0
    5.6728    1.0578    2.4005 C   0  0
    4.4336    1.0611    1.6033 C   0  0
    3.2573    0.5735    2.0227 C   0  0
    2.0781    0.6448    1.1302 C   0  0
   -1.2578   -3.5888    1.9536 C   0  0
   -0.3587   -2.3799    1.8619 C   0  0  2  0  0  0
   -1.0910   -1.0903    1.5387 C   0  0  2  0  0  0
   -1.0397    1.2611    1.4680 C   0  0  2  0  0  0
   -0.2098    0.0657    1.0720 C   0  0  1  0  0  0
   -1.7098    0.8153    2.7452 C   0  0  2  0  0  0
    0.6591   -4.1561    0.8825 C   0  0
   -3.2560    1.7671    1.3668 C   0  0
    0.4713   -4.7356   -0.5139 C   0  0
    2.0244   -4.5180    1.4534 C   0  0
   -4.4475    0.9586    0.8718 C   0  0
   -3.5327    3.2639    1.2831 C   0  0
    2.0680    1.1216    0.0065 O   0  0
   -0.3567   -4.6790    1.7544 O   0  0
   -1.7712   -0.6206    2.7185 O   0  0
    0.5401   -2.7260    0.8045 O   0  0
   -2.1185    1.4546    0.5538 O   0  0
   -2.9938    1.4283    2.7339 O   0  0
    1.0192    0.0857    1.7854 O   0  0
    8.9325    1.0508    4.4972 H   0  0
    7.0839   -0.5008    5.0729 H   0  0
    8.6941    2.6071    2.5797 H   0  0
    5.0055   -0.5031    3.7431 H   0  0
    6.6227    2.6180    1.2395 H   0  0
    4.5167    1.5174    0.6194 H   0  0
    3.1247    0.1317    3.0042 H   0  0
   -1.7615   -3.6806    2.9195 H   0  0
   -2.0057   -3.6166    1.1532 H   0  0
    0.2345   -2.2665    2.7778 H   0  0
   -1.8656   -1.2930    0.7895 H   0  0
   -0.4868    2.1989    1.5799 H   0  0
    0.0000   -0.0001    0.0000 H   0  0
   -1.1611    1.1088    3.6453 H   0  0
   -0.5108   -4.4642   -0.9013 H   0  0
    0.5502   -5.8223   -0.4803 H   0  0
    1.2365   -4.3459   -1.1854 H   0  0
    2.1359   -4.0934    2.4512 H   0  0
    2.8130   -4.1249    0.8117 H   0  0
    2.1269   -5.6015    1.5166 H   0  0
   -4.2298   -0.1076    0.9397 H   0  0
   -4.6635    1.2093   -0.1672 H   0  0
   -5.3265    1.1788    1.4783 H   0  0
   -2.6685    3.8226    1.6417 H   0  0
   -4.3975    3.5171    1.8960 H   0  0
   -3.7347    3.5476    0.2505 H   0  0
  1  2  2  0
  1  3  1  0
  2  4  1  0
  3  5  2  0
  4  6  2  0
  5  6  1  0
  6  7  1  0
  7  8  2  0
  8  9  1  0
  9 22  2  0
  9 28  1  0
 10 11  1  0
 10 23  1  0
 11 12  1  0
 11 25  1  0
 12 14  1  0
 12 24  1  0
 13 14  1  0
 13 15  1  0
 13 26  1  0
 14 28  1  0
 15 24  1  0
 15 27  1  0
 16 18  1  0
 16 19  1  0
 16 23  1  0
 16 25  1  0
 17 20  1  0
 17 21  1  0
 17 26  1  0
 17 27  1  0
  1 29  1  0
  2 30  1  0
  3 31  1  0
  4 32  1  0
  5 33  1  0
  7 34  1  0
  8 35  1  0
 10 36  1  0
 10 37  1  0
 11 38  1  0
 12 39  1  0
 13 40  1  0
 14 41  1  0
 15 42  1  0
 18 43  1  0
 18 44  1  0
 18 45  1  0
 19 46  1  0
 19 47  1  0
 19 48  1  0
 20 49  1  0
 20 50  1  0
 20 51  1  0
 21 52  1  0
 21 53  1  0
 21 54  1  0
M  END
> <Name>
BR020297

$$$$
BR020298
  SciTegic05062102053D

 39 41  0  0  1  0            999 V2000
    2.8926   -5.0336   -2.8776 C   0  0
    3.0597   -5.8472   -1.7570 C   0  0
    2.1145   -3.8791   -2.7915 C   0  0
    2.4487   -5.5064   -0.5503 C   0  0
    1.5034   -3.5383   -1.5848 C   0  0
    1.6705   -4.3519   -0.4642 C   0  0
    1.0201   -3.9891    0.8203 C   0  0
   -1.0397    1.2611    1.4680 C   0  0  2  0  0  0
   -0.2098    0.0657    1.0720 C   0  0  2  0  0  0
   -1.0910   -1.0903    1.5387 C   0  0  1  0  0  0
   -1.7098    0.8153    2.7452 C   0  0  2  0  0  0
   -3.2560    1.7671    1.3668 C   0  0
   -4.4475    0.9586    0.8718 C   0  0
   -3.5327    3.2639    1.2831 C   0  0
   -0.3587   -2.3799    1.8619 C   0  0
    1.1261   -4.6574    1.8369 O   0  0
   -2.1185    1.4546    0.5538 O   0  0
   -1.7712   -0.6206    2.7185 O   0  0
   -2.9938    1.4283    2.7339 O   0  0
    1.0192    0.0857    1.7854 O   0  0
    0.3100   -2.8323    0.6957 O   0  0
    3.3683   -5.2991   -3.8171 H   0  0
    3.6654   -6.7462   -1.8243 H   0  0
    1.9846   -3.2455   -3.6640 H   0  0
    2.5856   -6.1475    0.3167 H   0  0
    0.8992   -2.6364   -1.5294 H   0  0
   -0.4857    2.1985    1.5794 H   0  0
   -0.0013    0.0086   -0.0008 H   0  0
   -1.8635   -1.2914    0.7887 H   0  0
   -1.1619    1.1092    3.6456 H   0  0
   -4.2298   -0.1076    0.9397 H   0  0
   -4.6634    1.2093   -0.1671 H   0  0
   -5.3265    1.1788    1.4783 H   0  0
   -2.6685    3.8227    1.6417 H   0  0
   -4.3975    3.5171    1.8960 H   0  0
   -3.7347    3.5477    0.2505 H   0  0
   -1.0659   -3.1475    2.1859 H   0  0
    0.3783   -2.2113    2.6509 H   0  0
    1.4690    0.9123    1.5462 H   0  0
  1  2  2  0
  1  3  1  0
  2  4  1  0
  3  5  2  0
  4  6  2  0
  5  6  1  0
  6  7  1  0
  7 16  2  0
  7 21  1  0
  8  9  1  0
  8 11  1  0
  8 17  1  0
  9 10  1  0
  9 20  1  0
 10 15  1  0
 10 18  1  0
 11 18  1  0
 11 19  1  0
 12 13  1  0
 12 14  1  0
 12 17  1  0
 12 19  1  0
 15 21  1  0
  1 22  1  0
  2 23  1  0
  3 24  1  0
  4 25  1  0
  5 26  1  0
  8 27  1  0
  9 28  1  0
 10 29  1  0
 11 30  1  0
 13 31  1  0
 13 32  1  0
 13 33  1  0
 14 34  1  0
 14 35  1  0
 14 36  1  0
 15 37  1  0
 15 38  1  0
 20 39  1  0
M  END
> <Name>
BR020298

$$$$
BR020299
  SciTegic05062102053D

 51 54  0  0  1  0            999 V2000
    4.0289   -2.0598    6.4141 C   0  0
    4.3660   -3.0925    5.5391 C   0  0
    2.8095   -1.3972    6.2740 C   0  0
    4.6519    1.7122    3.6548 C   0  0
    5.5503    0.6456    3.6297 C   0  0
    3.4838   -3.4624    4.5240 C   0  0
    1.9273   -1.7671    5.2589 C   0  0
    3.5243    1.6938    2.8338 C   0  0
    5.3213   -0.4394    2.7836 C   0  0
    2.2644   -2.7998    4.3839 C   0  0
    3.2953    0.6088    1.9877 C   0  0
    4.1938   -0.4579    1.9626 C   0  0
    1.3254   -3.1936    3.3033 C   0  0
    2.0769    0.6516    1.1403 C   0  0
   -1.0397    1.2611    1.4680 C   0  0  2  0  0  0
   -0.2098    0.0657    1.0720 C   0  0  2  0  0  0
   -1.0910   -1.0903    1.5387 C   0  0  1  0  0  0
   -1.7098    0.8153    2.7452 C   0  0  2  0  0  0
   -3.2560    1.7671    1.3668 C   0  0
   -4.4475    0.9586    0.8718 C   0  0
   -3.5327    3.2639    1.2831 C   0  0
   -0.3587   -2.3799    1.8619 C   0  0
    1.2520   -4.3294    2.8606 O   0  0
    2.0575    1.1351    0.0190 O   0  0
   -2.1185    1.4546    0.5538 O   0  0
   -1.7712   -0.6206    2.7185 O   0  0
   -2.9938    1.4283    2.7339 O   0  0
    1.0192    0.0857    1.7854 O   0  0
    0.5804   -2.1277    2.8946 O   0  0
    3.9152   -2.1187    0.7184 I   0  0
    4.7158   -1.7718    7.2044 H   0  0
    5.3156   -3.6082    5.6482 H   0  0
    2.5468   -0.5933    6.9555 H   0  0
    4.8309    2.5567    4.3135 H   0  0
    6.4277    0.6602    4.2695 H   0  0
    3.7566   -4.2685    3.8477 H   0  0
    0.9798   -1.2437    5.1591 H   0  0
    2.8327    2.5320    2.8643 H   0  0
    6.0366   -1.2583    2.7825 H   0  0
   -0.4857    2.1985    1.5794 H   0  0
   -0.0013    0.0086   -0.0008 H   0  0
   -1.8635   -1.2914    0.7887 H   0  0
   -1.1619    1.1092    3.6456 H   0  0
   -4.2298   -0.1076    0.9397 H   0  0
   -4.6634    1.2093   -0.1671 H   0  0
   -5.3265    1.1788    1.4783 H   0  0
   -2.6685    3.8227    1.6417 H   0  0
   -4.3975    3.5171    1.8960 H   0  0
   -3.7347    3.5477    0.2505 H   0  0
    0.1730   -2.7462    0.9803 H   0  0
   -1.0637   -3.1426    2.2016 H   0  0
  1  2  2  0
  1  3  1  0
  2  6  1  0
  3  7  2  0
  4  5  2  0
  4  8  1  0
  5  9  1  0
  6 10  2  0
  7 10  1  0
  8 11  2  0
  9 12  2  0
 10 13  1  0
 11 12  1  0
 11 14  1  0
 12 30  1  0
 13 23  2  0
 13 29  1  0
 14 24  2  0
 14 28  1  0
 15 16  1  0
 15 18  1  0
 15 25  1  0
 16 17  1  0
 16 28  1  0
 17 22  1  0
 17 26  1  0
 18 26  1  0
 18 27  1  0
 19 20  1  0
 19 21  1  0
 19 25  1  0
 19 27  1  0
 22 29  1  0
  1 31  1  0
  2 32  1  0
  3 33  1  0
  4 34  1  0
  5 35  1  0
  6 36  1  0
  7 37  1  0
  8 38  1  0
  9 39  1  0
 15 40  1  0
 16 41  1  0
 17 42  1  0
 18 43  1  0
 20 44  1  0
 20 45  1  0
 20 46  1  0
 21 47  1  0
 21 48  1  0
 21 49  1  0
 22 50  1  0
 22 51  1  0
M  END
> <Name>
BR020299

$$$$
BR020300
  SciTegic05062102053D

 55 58  0  0  1  0            999 V2000
    8.0159    1.0661    3.9155 C   0  0
    4.0289   -2.0598    6.4141 C   0  0
    6.9804    0.1873    4.2330 C   0  0
    7.8780    1.9485    2.8439 C   0  0
    4.3660   -3.0925    5.5391 C   0  0
    2.8095   -1.3972    6.2740 C   0  0
    5.8070    0.1906    3.4788 C   0  0
    6.7046    1.9518    2.0898 C   0  0
    3.4838   -3.4624    4.5240 C   0  0
    1.9273   -1.7671    5.2589 C   0  0
    5.6690    1.0729    2.4072 C   0  0
    2.2644   -2.7998    4.3839 C   0  0
    4.4297    1.0768    1.6102 C   0  0
    3.2555    0.5812    2.0261 C   0  0
    1.3254   -3.1936    3.3033 C   0  0
    2.0759    0.6540    1.1344 C   0  0
   -1.0397    1.2611    1.4680 C   0  0  2  0  0  0
   -0.2098    0.0657    1.0720 C   0  0  2  0  0  0
   -1.0910   -1.0903    1.5387 C   0  0  1  0  0  0
   -1.7098    0.8153    2.7452 C   0  0  2  0  0  0
   -3.2560    1.7671    1.3668 C   0  0
   -4.4475    0.9586    0.8718 C   0  0
   -3.5327    3.2639    1.2831 C   0  0
   -0.3587   -2.3799    1.8619 C   0  0
    1.2520   -4.3294    2.8606 O   0  0
    2.0637    1.1389    0.0141 O   0  0
   -2.1185    1.4546    0.5538 O   0  0
   -1.7712   -0.6206    2.7185 O   0  0
   -2.9938    1.4283    2.7339 O   0  0
    0.5804   -2.1277    2.8946 O   0  0
    1.0192    0.0857    1.7854 O   0  0
    8.9290    1.0645    4.5034 H   0  0
    4.7158   -1.7718    7.2044 H   0  0
    7.0871   -0.4990    5.0680 H   0  0
    8.6838    2.6336    2.5973 H   0  0
    5.3156   -3.6082    5.6482 H   0  0
    2.5468   -0.5933    6.9555 H   0  0
    5.0085   -0.5005    3.7385 H   0  0
    6.6122    2.6455    1.2575 H   0  0
    3.7566   -4.2685    3.8477 H   0  0
    0.9798   -1.2437    5.1591 H   0  0
    4.5107    1.5405    0.6296 H   0  0
    3.1249    0.1318    3.0044 H   0  0
   -0.4857    2.1985    1.5794 H   0  0
   -0.0013    0.0086   -0.0008 H   0  0
   -1.8635   -1.2914    0.7887 H   0  0
   -1.1619    1.1092    3.6456 H   0  0
   -4.2298   -0.1076    0.9397 H   0  0
   -4.6634    1.2093   -0.1671 H   0  0
   -5.3265    1.1788    1.4783 H   0  0
   -2.6685    3.8227    1.6417 H   0  0
   -4.3975    3.5171    1.8960 H   0  0
   -3.7347    3.5477    0.2505 H   0  0
    0.1730   -2.7462    0.9803 H   0  0
   -1.0637   -3.1426    2.2016 H   0  0
  1  3  2  0
  1  4  1  0
  2  5  2  0
  2  6  1  0
  3  7  1  0
  4  8  2  0
  5  9  1  0
  6 10  2  0
  7 11  2  0
  8 11  1  0
  9 12  2  0
 10 12  1  0
 11 13  1  0
 12 15  1  0
 13 14  2  0
 14 16  1  0
 15 25  2  0
 15 30  1  0
 16 26  2  0
 16 31  1  0
 17 18  1  0
 17 20  1  0
 17 27  1  0
 18 19  1  0
 18 31  1  0
 19 24  1  0
 19 28  1  0
 20 28  1  0
 20 29  1  0
 21 22  1  0
 21 23  1  0
 21 27  1  0
 21 29  1  0
 24 30  1  0
  1 32  1  0
  2 33  1  0
  3 34  1  0
  4 35  1  0
  5 36  1  0
  6 37  1  0
  7 38  1  0
  8 39  1  0
  9 40  1  0
 10 41  1  0
 13 42  1  0
 14 43  1  0
 17 44  1  0
 18 45  1  0
 19 46  1  0
 20 47  1  0
 22 48  1  0
 22 49  1  0
 22 50  1  0
 23 51  1  0
 23 52  1  0
 23 53  1  0
 24 54  1  0
 24 55  1  0
M  END
> <Name>
BR020300

$$$$
BR020301
  SciTegic05062102053D

 26 27  0  0  1  0            999 V2000
   -1.0397    1.2611    1.4680 C   0  0  2  0  0  0
   -0.2098    0.0657    1.0720 C   0  0  2  0  0  0
   -1.0910   -1.0903    1.5387 C   0  0  1  0  0  0
   -1.7098    0.8153    2.7452 C   0  0  2  0  0  0
   -3.2560    1.7671    1.3668 C   0  0
   -4.4475    0.9586    0.8718 C   0  0
   -3.5327    3.2639    1.2831 C   0  0
   -0.3587   -2.3799    1.8619 C   0  0
   -2.1185    1.4546    0.5538 O   0  0
   -1.7712   -0.6206    2.7185 O   0  0
   -2.9938    1.4283    2.7339 O   0  0
    1.0192    0.0857    1.7854 O   0  0
   -1.6834   -4.0486    1.7792 I   0  0
   -0.4857    2.1985    1.5794 H   0  0
   -0.0013    0.0086   -0.0008 H   0  0
   -1.8635   -1.2914    0.7887 H   0  0
   -1.1619    1.1092    3.6456 H   0  0
   -4.2298   -0.1076    0.9397 H   0  0
   -4.6634    1.2093   -0.1671 H   0  0
   -5.3265    1.1788    1.4783 H   0  0
   -2.6685    3.8227    1.6417 H   0  0
   -4.3975    3.5171    1.8960 H   0  0
   -3.7347    3.5477    0.2505 H   0  0
    0.0853   -2.3098    2.8612 H   0  0
    0.4628   -2.5242    1.1514 H   0  0
    1.4690    0.9123    1.5462 H   0  0
  1  2  1  0
  1  4  1  0
  1  9  1  0
  2  3  1  0
  2 12  1  0
  3  8  1  0
  3 10  1  0
  4 10  1  0
  4 11  1  0
  5  6  1  0
  5  7  1  0
  5  9  1  0
  5 11  1  0
  8 13  1  0
  1 14  1  0
  2 15  1  0
  3 16  1  0
  4 17  1  0
  6 18  1  0
  6 19  1  0
  6 20  1  0
  7 21  1  0
  7 22  1  0
  7 23  1  0
  8 24  1  0
  8 25  1  0
 12 26  1  0
M  END
> <Name>
BR020301

$$$$
BR020302
  SciTegic05062102053D

 28 29  0  0  1  0            999 V2000
   -1.0397    1.2611    1.4680 C   0  0  2  0  0  0
   -0.2098    0.0657    1.0720 C   0  0  2  0  0  0
   -1.0910   -1.0903    1.5387 C   0  0  1  0  0  0
   -1.7098    0.8153    2.7452 C   0  0  2  0  0  0
   -3.2560    1.7671    1.3668 C   0  0
   -4.4475    0.9586    0.8718 C   0  0
   -3.5327    3.2639    1.2831 C   0  0
   -0.3587   -2.3799    1.8619 C   0  0
   -0.4134   -5.6546    2.2685 N   0  5
   -1.3088   -3.4895    1.8175 N   0  0
   -0.8387   -4.6183    2.0532 N   0  3
   -2.1185    1.4546    0.5538 O   0  0
   -1.7712   -0.6206    2.7185 O   0  0
   -2.9938    1.4283    2.7339 O   0  0
    1.0192    0.0857    1.7854 O   0  0
   -0.4857    2.1985    1.5794 H   0  0
   -0.0013    0.0086   -0.0008 H   0  0
   -1.8635   -1.2914    0.7887 H   0  0
   -1.1619    1.1092    3.6456 H   0  0
   -4.2298   -0.1076    0.9397 H   0  0
   -4.6634    1.2093   -0.1671 H   0  0
   -5.3265    1.1788    1.4783 H   0  0
   -2.6685    3.8227    1.6417 H   0  0
   -4.3975    3.5171    1.8960 H   0  0
   -3.7347    3.5477    0.2505 H   0  0
    0.0884   -2.3203    2.8579 H   0  0
    0.4399   -2.5527    1.1352 H   0  0
    1.4690    0.9123    1.5462 H   0  0
  1  2  1  0
  1  4  1  0
  1 12  1  0
  2  3  1  0
  2 15  1  0
  3  8  1  0
  3 13  1  0
  4 13  1  0
  4 14  1  0
  5  6  1  0
  5  7  1  0
  5 12  1  0
  5 14  1  0
  8 10  1  0
  9 11  2  0
 10 11  2  0
  1 16  1  0
  2 17  1  0
  3 18  1  0
  4 19  1  0
  6 20  1  0
  6 21  1  0
  6 22  1  0
  7 23  1  0
  7 24  1  0
  7 25  1  0
  8 26  1  0
  8 27  1  0
 15 28  1  0
M  CHG  2   9  -1  11   1
M  END
> <Name>
BR020302

$$$$
BR020303
  SciTegic05062102053D

 44 46  0  0  1  0            999 V2000
    8.0159    1.0661    3.9155 C   0  0
    6.9804    0.1873    4.2330 C   0  0
    7.8780    1.9485    2.8439 C   0  0
    5.8070    0.1906    3.4788 C   0  0
    6.7046    1.9518    2.0898 C   0  0
    5.6690    1.0729    2.4072 C   0  0
    4.4297    1.0768    1.6102 C   0  0
    3.2555    0.5812    2.0261 C   0  0
    2.0759    0.6540    1.1344 C   0  0
   -1.0397    1.2611    1.4680 C   0  0  2  0  0  0
   -0.2098    0.0657    1.0720 C   0  0  2  0  0  0
   -1.0910   -1.0903    1.5387 C   0  0  1  0  0  0
   -1.7098    0.8153    2.7452 C   0  0  2  0  0  0
   -3.2560    1.7671    1.3668 C   0  0
   -4.4475    0.9586    0.8718 C   0  0
   -3.5327    3.2639    1.2831 C   0  0
   -0.3587   -2.3799    1.8619 C   0  0
   -0.4134   -5.6546    2.2685 N   0  5
   -1.3088   -3.4895    1.8175 N   0  0
   -0.8387   -4.6183    2.0532 N   0  3
    2.0637    1.1389    0.0141 O   0  0
   -2.1185    1.4546    0.5538 O   0  0
   -1.7712   -0.6206    2.7185 O   0  0
   -2.9938    1.4283    2.7339 O   0  0
    1.0192    0.0857    1.7854 O   0  0
    8.9290    1.0645    4.5034 H   0  0
    7.0871   -0.4990    5.0680 H   0  0
    8.6838    2.6336    2.5973 H   0  0
    5.0085   -0.5005    3.7385 H   0  0
    6.6122    2.6455    1.2575 H   0  0
    4.5107    1.5405    0.6296 H   0  0
    3.1249    0.1318    3.0044 H   0  0
   -0.4857    2.1985    1.5794 H   0  0
   -0.0013    0.0086   -0.0008 H   0  0
   -1.8635   -1.2914    0.7887 H   0  0
   -1.1619    1.1092    3.6456 H   0  0
   -4.2298   -0.1076    0.9397 H   0  0
   -4.6634    1.2093   -0.1671 H   0  0
   -5.3265    1.1788    1.4783 H   0  0
   -2.6685    3.8227    1.6417 H   0  0
   -4.3975    3.5171    1.8960 H   0  0
   -3.7347    3.5477    0.2505 H   0  0
    0.0884   -2.3203    2.8579 H   0  0
    0.4399   -2.5527    1.1352 H   0  0
  1  2  2  0
  1  3  1  0
  2  4  1  0
  3  5  2  0
  4  6  2  0
  5  6  1  0
  6  7  1  0
  7  8  2  0
  8  9  1  0
  9 21  2  0
  9 25  1  0
 10 11  1  0
 10 13  1  0
 10 22  1  0
 11 12  1  0
 11 25  1  0
 12 17  1  0
 12 23  1  0
 13 23  1  0
 13 24  1  0
 14 15  1  0
 14 16  1  0
 14 22  1  0
 14 24  1  0
 17 19  1  0
 18 20  2  0
 19 20  2  0
  1 26  1  0
  2 27  1  0
  3 28  1  0
  4 29  1  0
  5 30  1  0
  7 31  1  0
  8 32  1  0
 10 33  1  0
 11 34  1  0
 12 35  1  0
 13 36  1  0
 15 37  1  0
 15 38  1  0
 15 39  1  0
 16 40  1  0
 16 41  1  0
 16 42  1  0
 17 43  1  0
 17 44  1  0
M  CHG  2  18  -1  20   1
M  END
> <Name>
BR020303

$$$$
BR020304
  SciTegic05062102053D

 44 46  0  0  1  0            999 V2000
   -6.2343   -8.9422    3.0693 C   0  0
   -5.2050   -8.7095    2.1571 C   0  0
   -6.4046   -8.0906    4.1608 C   0  0
   -4.3460   -7.6252    2.3365 C   0  0
   -5.5456   -7.0063    4.3402 C   0  0
   -4.5163   -6.7736    3.4281 C   0  0
   -3.6091   -5.6281    3.6182 C   0  0
   -2.8560   -5.0850    2.6504 C   0  0
   -1.9797   -3.9184    2.9564 C   0  0
   -1.0397    1.2611    1.4680 C   0  0  2  0  0  0
   -0.2098    0.0657    1.0720 C   0  0  2  0  0  0
   -1.0910   -1.0903    1.5387 C   0  0  1  0  0  0
   -1.7098    0.8153    2.7452 C   0  0  2  0  0  0
   -3.2560    1.7671    1.3668 C   0  0
   -4.4475    0.9586    0.8718 C   0  0
   -3.5327    3.2639    1.2831 C   0  0
   -0.3587   -2.3799    1.8619 C   0  0
   -1.2677   -3.4802    1.8399 N   0  0
   -1.9123   -3.4196    4.0751 O   0  0
   -2.1185    1.4546    0.5538 O   0  0
   -1.7712   -0.6206    2.7185 O   0  0
   -2.9938    1.4283    2.7339 O   0  0
    1.0192    0.0857    1.7854 O   0  0
   -6.9039   -9.7856    2.9289 H   0  0
   -5.0729   -9.3718    1.3065 H   0  0
   -7.2067   -8.2709    4.8705 H   0  0
   -3.5482   -7.4569    1.6170 H   0  0
   -5.6913   -6.3515    5.1961 H   0  0
   -3.5934   -5.2126    4.6232 H   0  0
   -2.8666   -5.4606    1.6327 H   0  0
   -0.4857    2.1985    1.5794 H   0  0
   -0.0013    0.0086   -0.0008 H   0  0
   -1.8635   -1.2914    0.7887 H   0  0
   -1.1619    1.1092    3.6456 H   0  0
   -4.2298   -0.1076    0.9397 H   0  0
   -4.6634    1.2093   -0.1671 H   0  0
   -5.3265    1.1788    1.4783 H   0  0
   -2.6685    3.8227    1.6417 H   0  0
   -4.3975    3.5171    1.8960 H   0  0
   -3.7347    3.5477    0.2505 H   0  0
    0.0782   -2.3035    2.8522 H   0  0
    0.4173   -2.5497    1.1232 H   0  0
   -1.4049   -3.9761    0.9541 H   0  0
    1.4690    0.9123    1.5462 H   0  0
  1  2  2  0
  1  3  1  0
  2  4  1  0
  3  5  2  0
  4  6  2  0
  5  6  1  0
  6  7  1  0
  7  8  2  0
  8  9  1  0
  9 18  1  0
  9 19  2  0
 10 11  1  0
 10 13  1  0
 10 20  1  0
 11 12  1  0
 11 23  1  0
 12 17  1  0
 12 21  1  0
 13 21  1  0
 13 22  1  0
 14 15  1  0
 14 16  1  0
 14 20  1  0
 14 22  1  0
 17 18  1  0
  1 24  1  0
  2 25  1  0
  3 26  1  0
  4 27  1  0
  5 28  1  0
  7 29  1  0
  8 30  1  0
 10 31  1  0
 11 32  1  0
 12 33  1  0
 13 34  1  0
 15 35  1  0
 15 36  1  0
 15 37  1  0
 16 38  1  0
 16 39  1  0
 16 40  1  0
 17 41  1  0
 17 42  1  0
 18 43  1  0
 23 44  1  0
M  END
> <Name>
BR020304

$$$$
BR020305
  SciTegic05062102053D

 40 42  0  0  1  0            999 V2000
    4.8944   -0.7533    3.1814 C   0  0
    5.5753    0.3965    3.5812 C   0  0
    3.7544   -0.6472    2.3846 C   0  0
    5.1162    1.6525    3.1844 C   0  0
    3.2953    0.6088    1.9877 C   0  0
    3.9762    1.7586    2.3876 C   0  0
    2.0769    0.6516    1.1403 C   0  0
   -1.0397    1.2611    1.4680 C   0  0  2  0  0  0
   -0.2098    0.0657    1.0720 C   0  0  2  0  0  0
   -1.0910   -1.0903    1.5387 C   0  0  1  0  0  0
   -1.7098    0.8153    2.7452 C   0  0  2  0  0  0
   -3.2560    1.7671    1.3668 C   0  0
   -4.4475    0.9586    0.8718 C   0  0
   -3.5327    3.2639    1.2831 C   0  0
   -0.3587   -2.3799    1.8619 C   0  0
   -0.4134   -5.6546    2.2685 N   0  5
   -1.3088   -3.4895    1.8175 N   0  0
   -0.8387   -4.6183    2.0532 N   0  3
    2.0575    1.1351    0.0190 O   0  0
   -2.1185    1.4546    0.5538 O   0  0
   -1.7712   -0.6206    2.7185 O   0  0
   -2.9938    1.4283    2.7339 O   0  0
    1.0192    0.0857    1.7854 O   0  0
    3.3454    3.6759    1.8309 I   0  0
    5.2522   -1.7306    3.4909 H   0  0
    6.4631    0.3133    4.2011 H   0  0
    3.2342   -1.5520    2.0805 H   0  0
    5.6645    2.5334    3.5092 H   0  0
   -0.4857    2.1985    1.5794 H   0  0
   -0.0013    0.0086   -0.0008 H   0  0
   -1.8635   -1.2914    0.7887 H   0  0
   -1.1619    1.1092    3.6456 H   0  0
   -4.2298   -0.1076    0.9397 H   0  0
   -4.6634    1.2093   -0.1671 H   0  0
   -5.3265    1.1788    1.4783 H   0  0
   -2.6685    3.8227    1.6417 H   0  0
   -4.3975    3.5171    1.8960 H   0  0
   -3.7347    3.5477    0.2505 H   0  0
    0.0884   -2.3203    2.8579 H   0  0
    0.4399   -2.5527    1.1352 H   0  0
  1  2  2  0
  1  3  1  0
  2  4  1  0
  3  5  2  0
  4  6  2  0
  5  6  1  0
  5  7  1  0
  6 24  1  0
  7 19  2  0
  7 23  1  0
  8  9  1  0
  8 11  1  0
  8 20  1  0
  9 10  1  0
  9 23  1  0
 10 15  1  0
 10 21  1  0
 11 21  1  0
 11 22  1  0
 12 13  1  0
 12 14  1  0
 12 20  1  0
 12 22  1  0
 15 17  1  0
 16 18  2  0
 17 18  2  0
  1 25  1  0
  2 26  1  0
  3 27  1  0
  4 28  1  0
  8 29  1  0
  9 30  1  0
 10 31  1  0
 11 32  1  0
 13 33  1  0
 13 34  1  0
 13 35  1  0
 14 36  1  0
 14 37  1  0
 14 38  1  0
 15 39  1  0
 15 40  1  0
M  CHG  2  16  -1  18   1
M  END
> <Name>
BR020305

$$$$
BR020306
  SciTegic05062102053D

 40 42  0  0  1  0            999 V2000
   -3.0501   -7.4103    2.1598 C   0  0
   -4.4222   -7.3648    2.4063 C   0  0
   -2.2693   -6.2699    2.3489 C   0  0
   -5.0136   -6.1790    2.8419 C   0  0
   -2.8607   -5.0841    2.7845 C   0  0
   -4.2329   -5.0386    3.0309 C   0  0
   -1.9729   -3.9068    2.9660 C   0  0
   -1.0397    1.2611    1.4680 C   0  0  2  0  0  0
   -0.2098    0.0657    1.0720 C   0  0  2  0  0  0
   -1.0910   -1.0903    1.5387 C   0  0  1  0  0  0
   -1.7098    0.8153    2.7452 C   0  0  2  0  0  0
   -3.2560    1.7671    1.3668 C   0  0
   -4.4475    0.9586    0.8718 C   0  0
   -3.5327    3.2639    1.2831 C   0  0
   -0.3587   -2.3799    1.8619 C   0  0
   -1.2677   -3.4802    1.8399 N   0  0
   -1.8851   -3.3869    4.0752 O   0  0
   -2.1185    1.4546    0.5538 O   0  0
   -1.7712   -0.6206    2.7185 O   0  0
   -2.9938    1.4283    2.7339 O   0  0
    1.0192    0.0857    1.7854 O   0  0
   -5.1888   -3.2946    3.6856 I   0  0
   -2.5904   -8.3336    1.8205 H   0  0
   -5.0295   -8.2530    2.2595 H   0  0
   -1.2012   -6.3205    2.1530 H   0  0
   -6.0850   -6.1693    3.0270 H   0  0
   -0.4857    2.1985    1.5794 H   0  0
   -0.0013    0.0086   -0.0008 H   0  0
   -1.8635   -1.2914    0.7887 H   0  0
   -1.1619    1.1092    3.6456 H   0  0
   -4.2298   -0.1076    0.9397 H   0  0
   -4.6634    1.2093   -0.1671 H   0  0
   -5.3265    1.1788    1.4783 H   0  0
   -2.6685    3.8227    1.6417 H   0  0
   -4.3975    3.5171    1.8960 H   0  0
   -3.7347    3.5477    0.2505 H   0  0
    0.0782   -2.3035    2.8522 H   0  0
    0.4173   -2.5497    1.1232 H   0  0
   -1.3549   -4.0128    0.9708 H   0  0
    1.4690    0.9123    1.5462 H   0  0
  1  2  1  0
  1  3  2  0
  2  4  2  0
  3  5  1  0
  4  6  1  0
  5  6  2  0
  5  7  1  0
  6 22  1  0
  7 16  1  0
  7 17  2  0
  8  9  1  0
  8 11  1  0
  8 18  1  0
  9 10  1  0
  9 21  1  0
 10 15  1  0
 10 19  1  0
 11 19  1  0
 11 20  1  0
 12 13  1  0
 12 14  1  0
 12 18  1  0
 12 20  1  0
 15 16  1  0
  1 23  1  0
  2 24  1  0
  3 25  1  0
  4 26  1  0
  8 27  1  0
  9 28  1  0
 10 29  1  0
 11 30  1  0
 13 31  1  0
 13 32  1  0
 13 33  1  0
 14 34  1  0
 14 35  1  0
 14 36  1  0
 15 37  1  0
 15 38  1  0
 16 39  1  0
 21 40  1  0
M  END
> <Name>
BR020306

$$$$
BR020307
  SciTegic05062102053D

 56 59  0  0  1  0            999 V2000
    8.0159    1.0661    3.9155 C   0  0
    6.9804    0.1873    4.2330 C   0  0
    7.8780    1.9485    2.8439 C   0  0
   -3.0501   -7.4103    2.1598 C   0  0
   -4.4222   -7.3648    2.4063 C   0  0
    5.8070    0.1906    3.4788 C   0  0
    6.7046    1.9518    2.0898 C   0  0
   -2.2693   -6.2699    2.3489 C   0  0
   -5.0136   -6.1790    2.8419 C   0  0
    5.6690    1.0729    2.4072 C   0  0
   -2.8607   -5.0841    2.7845 C   0  0
   -4.2329   -5.0386    3.0309 C   0  0
    4.4297    1.0768    1.6102 C   0  0
    3.2555    0.5812    2.0261 C   0  0
   -1.9729   -3.9068    2.9660 C   0  0
    2.0759    0.6540    1.1344 C   0  0
   -1.0397    1.2611    1.4680 C   0  0  2  0  0  0
   -0.2098    0.0657    1.0720 C   0  0  2  0  0  0
   -1.0910   -1.0903    1.5387 C   0  0  1  0  0  0
   -1.7098    0.8153    2.7452 C   0  0  2  0  0  0
   -3.2560    1.7671    1.3668 C   0  0
   -4.4475    0.9586    0.8718 C   0  0
   -3.5327    3.2639    1.2831 C   0  0
   -0.3587   -2.3799    1.8619 C   0  0
   -1.2677   -3.4802    1.8399 N   0  0
   -1.8851   -3.3869    4.0752 O   0  0
    2.0637    1.1389    0.0141 O   0  0
   -2.1185    1.4546    0.5538 O   0  0
   -1.7712   -0.6206    2.7185 O   0  0
   -2.9938    1.4283    2.7339 O   0  0
    1.0192    0.0857    1.7854 O   0  0
   -5.1888   -3.2946    3.6856 I   0  0
    8.9290    1.0645    4.5034 H   0  0
    7.0871   -0.4990    5.0680 H   0  0
    8.6838    2.6336    2.5973 H   0  0
   -2.5904   -8.3336    1.8205 H   0  0
   -5.0295   -8.2530    2.2595 H   0  0
    5.0085   -0.5005    3.7385 H   0  0
    6.6122    2.6455    1.2575 H   0  0
   -1.2012   -6.3205    2.1530 H   0  0
   -6.0850   -6.1693    3.0270 H   0  0
    4.5107    1.5405    0.6296 H   0  0
    3.1249    0.1318    3.0044 H   0  0
   -0.4857    2.1985    1.5794 H   0  0
   -0.0013    0.0086   -0.0008 H   0  0
   -1.8635   -1.2914    0.7887 H   0  0
   -1.1619    1.1092    3.6456 H   0  0
   -4.2298   -0.1076    0.9397 H   0  0
   -4.6634    1.2093   -0.1671 H   0  0
   -5.3265    1.1788    1.4783 H   0  0
   -2.6685    3.8227    1.6417 H   0  0
   -4.3975    3.5171    1.8960 H   0  0
   -3.7347    3.5477    0.2505 H   0  0
    0.0782   -2.3035    2.8522 H   0  0
    0.4173   -2.5497    1.1232 H   0  0
   -1.3549   -4.0128    0.9708 H   0  0
  1  2  2  0
  1  3  1  0
  2  6  1  0
  3  7  2  0
  4  5  1  0
  4  8  2  0
  5  9  2  0
  6 10  2  0
  7 10  1  0
  8 11  1  0
  9 12  1  0
 10 13  1  0
 11 12  2  0
 11 15  1  0
 12 32  1  0
 13 14  2  0
 14 16  1  0
 15 25  1  0
 15 26  2  0
 16 27  2  0
 16 31  1  0
 17 18  1  0
 17 20  1  0
 17 28  1  0
 18 19  1  0
 18 31  1  0
 19 24  1  0
 19 29  1  0
 20 29  1  0
 20 30  1  0
 21 22  1  0
 21 23  1  0
 21 28  1  0
 21 30  1  0
 24 25  1  0
  1 33  1  0
  2 34  1  0
  3 35  1  0
  4 36  1  0
  5 37  1  0
  6 38  1  0
  7 39  1  0
  8 40  1  0
  9 41  1  0
 13 42  1  0
 14 43  1  0
 17 44  1  0
 18 45  1  0
 19 46  1  0
 20 47  1  0
 22 48  1  0
 22 49  1  0
 22 50  1  0
 23 51  1  0
 23 52  1  0
 23 53  1  0
 24 54  1  0
 24 55  1  0
 25 56  1  0
M  END
> <Name>
BR020307

$$$$
BR020308
  SciTegic05062102053D

 56 59  0  0  1  0            999 V2000
    6.3204   -1.9925    7.7171 C   0  0
    4.9710   -1.6409    7.7513 C   0  0
    6.8338   -2.6821    6.6186 C   0  0
    4.3546    1.2597    4.0592 C   0  0
    5.5204    0.5997    3.6705 C   0  0
    4.1350   -1.9790    6.6872 C   0  0
    5.9978   -3.0202    5.5545 C   0  0
    3.2421    1.2642    3.2179 C   0  0
    5.5736   -0.0557    2.4403 C   0  0
    4.6483   -2.6687    5.5888 C   0  0
    3.2953    0.6088    1.9877 C   0  0
    4.4610   -0.0512    1.5989 C   0  0
    3.7656   -3.0262    4.4643 C   0  0
    2.5905   -2.4354    4.2017 C   0  0
    2.0769    0.6516    1.1403 C   0  0
    1.7837   -2.8742    3.0274 C   0  0
   -1.0397    1.2611    1.4680 C   0  0  2  0  0  0
   -0.2098    0.0657    1.0720 C   0  0  2  0  0  0
   -1.0910   -1.0903    1.5387 C   0  0  1  0  0  0
   -1.7098    0.8153    2.7452 C   0  0  2  0  0  0
   -3.2560    1.7671    1.3668 C   0  0
   -4.4475    0.9586    0.8718 C   0  0
   -3.5327    3.2639    1.2831 C   0  0
   -0.3587   -2.3799    1.8619 C   0  0
    0.5939   -2.1572    2.9013 N   0  0
    2.0575    1.1351    0.0190 O   0  0
    2.1502   -3.7690    2.2725 O   0  0
   -2.1185    1.4546    0.5538 O   0  0
   -1.7712   -0.6206    2.7185 O   0  0
   -2.9938    1.4283    2.7339 O   0  0
    1.0192    0.0857    1.7854 O   0  0
    4.6138   -1.0550   -0.2321 I   0  0
    6.9716   -1.7281    8.5450 H   0  0
    4.5713   -1.1029    8.6060 H   0  0
    7.8847   -2.9549    6.5913 H   0  0
    4.3140    1.7699    5.0168 H   0  0
    6.3861    0.5960    4.3261 H   0  0
    3.0852   -1.6981    6.7284 H   0  0
    6.4129   -3.5579    4.7053 H   0  0
    2.3404    1.7824    3.5343 H   0  0
    6.4937   -0.5626    2.1603 H   0  0
    4.1392   -3.8157    3.8162 H   0  0
    2.2010   -1.6295    4.8144 H   0  0
   -0.4857    2.1985    1.5794 H   0  0
   -0.0013    0.0086   -0.0008 H   0  0
   -1.8635   -1.2914    0.7887 H   0  0
   -1.1619    1.1092    3.6456 H   0  0
   -4.2298   -0.1076    0.9397 H   0  0
   -4.6634    1.2093   -0.1671 H   0  0
   -5.3265    1.1788    1.4783 H   0  0
   -2.6685    3.8227    1.6417 H   0  0
   -4.3975    3.5171    1.8960 H   0  0
   -3.7347    3.5477    0.2505 H   0  0
    0.1618   -2.7264    0.9751 H   0  0
   -1.0720   -3.1273    2.1925 H   0  0
    0.3924   -1.4298    3.5938 H   0  0
  1  2  2  0
  1  3  1  0
  2  6  1  0
  3  7  2  0
  4  5  1  0
  4  8  2  0
  5  9  2  0
  6 10  2  0
  7 10  1  0
  8 11  1  0
  9 12  1  0
 10 13  1  0
 11 12  2  0
 11 15  1  0
 12 32  1  0
 13 14  2  0
 14 16  1  0
 15 26  2  0
 15 31  1  0
 16 25  1  0
 16 27  2  0
 17 18  1  0
 17 20  1  0
 17 28  1  0
 18 19  1  0
 18 31  1  0
 19 24  1  0
 19 29  1  0
 20 29  1  0
 20 30  1  0
 21 22  1  0
 21 23  1  0
 21 28  1  0
 21 30  1  0
 24 25  1  0
  1 33  1  0
  2 34  1  0
  3 35  1  0
  4 36  1  0
  5 37  1  0
  6 38  1  0
  7 39  1  0
  8 40  1  0
  9 41  1  0
 13 42  1  0
 14 43  1  0
 17 44  1  0
 18 45  1  0
 19 46  1  0
 20 47  1  0
 22 48  1  0
 22 49  1  0
 22 50  1  0
 23 51  1  0
 23 52  1  0
 23 53  1  0
 24 54  1  0
 24 55  1  0
 25 56  1  0
M  END
> <Name>
BR020308

$$$$
BR020309
  SciTegic05062102053D

 51 54  0  0  1  0            999 V2000
    2.9971    8.3838    0.0143 C   0  0
    2.6241    7.2340   -0.6817 C   0  0
    3.0100    8.3814    1.4091 C   0  0
    2.2638    6.0818    0.0171 C   0  0
    2.6497    7.2292    2.1079 C   0  0
    2.2766    6.0794    1.4119 C   0  0
    1.8960    4.8628    2.1505 C   0  0
    1.1742    3.8504    1.6472 C   0  0
    0.8088    2.6529    2.4317 C   0  0
    1.3949    1.1003    0.5212 C   0  0
    0.4632    0.5454   -0.5462 C   0  0  2  0  0  0
   -0.6672   -0.2859    0.0520 C   0  0  1  0  0  0
   -0.7615   -1.4646   -0.8801 C   0  0  2  0  0  0
    0.6356   -1.6189   -1.4165 C   0  0  2  0  0  0
   -0.1442    0.3338    2.3200 C   0  0
   -0.8471   -1.7498   -3.1350 C   0  0
    0.5970   -0.3015    3.5038 C   0  0
   -1.5508    0.7705    2.7643 C   0  0
   -1.6118   -2.9945   -3.5690 C   0  0
   -0.7435   -0.7409   -4.2710 C   0  0
    0.6539    1.4491    1.7383 N   0  0
    0.6535    2.8003    3.6444 O   0  0
    1.2288   -0.3146   -1.4101 O   0  0
   -0.2967   -0.7364    1.3540 O   0  0
   -1.5328   -1.1342   -2.0364 O   0  0
    0.4712   -2.1421   -2.7296 O   0  0
    3.2789    9.2804   -0.5298 H   0  0
    2.6151    7.2353   -1.7678 H   0  0
    3.3016    9.2762    1.9512 H   0  0
    1.9752    5.1933   -0.5395 H   0  0
    2.6647    7.2431    3.1952 H   0  0
    2.2265    4.8219    3.1868 H   0  0
    0.8068    3.8660    0.6258 H   0  0
    2.1373    0.3450    0.8129 H   0  0
    1.9848    1.9227    0.1133 H   0  0
    0.0522    1.3492   -1.1676 H   0  0
   -1.6064    0.2746    0.0959 H   0  0
   -1.1571   -2.3823   -0.4337 H   0  0
    1.2624   -2.2840   -0.8146 H   0  0
    1.5896   -0.6086    3.1867 H   0  0
    0.0440   -1.1686    3.8537 H   0  0
    0.6818    0.4233    4.3087 H   0  0
   -2.0691    1.2186    1.9229 H   0  0
   -1.4638    1.4948    3.5674 H   0  0
   -2.1016   -0.0971    3.1127 H   0  0
   -1.6734   -3.7012   -2.7415 H   0  0
   -1.1017   -3.4722   -4.4053 H   0  0
   -2.6209   -2.7226   -3.8783 H   0  0
   -0.1936    0.1402   -3.9391 H   0  0
   -1.7398   -0.4354   -4.5912 H   0  0
   -0.2207   -1.1850   -5.1184 H   0  0
  1  2  2  0
  1  3  1  0
  2  4  1  0
  3  5  2  0
  4  6  2  0
  5  6  1  0
  6  7  1  0
  7  8  2  0
  8  9  1  0
  9 21  1  0
  9 22  2  0
 10 11  1  0
 10 21  1  0
 11 12  1  0
 11 23  1  0
 12 13  1  0
 12 24  1  0
 13 14  1  0
 13 25  1  0
 14 23  1  0
 14 26  1  0
 15 17  1  0
 15 18  1  0
 15 21  1  0
 15 24  1  0
 16 19  1  0
 16 20  1  0
 16 25  1  0
 16 26  1  0
  1 27  1  0
  2 28  1  0
  3 29  1  0
  4 30  1  0
  5 31  1  0
  7 32  1  0
  8 33  1  0
 10 34  1  0
 10 35  1  0
 11 36  1  0
 12 37  1  0
 13 38  1  0
 14 39  1  0
 17 40  1  0
 17 41  1  0
 17 42  1  0
 18 43  1  0
 18 44  1  0
 18 45  1  0
 19 46  1  0
 19 47  1  0
 19 48  1  0
 20 49  1  0
 20 50  1  0
 20 51  1  0
M  END
> <Name>
BR020309

$$$$
BR020310
  SciTegic05062102053D

 33 34  0  0  1  0            999 V2000
   -1.0397    1.2611    1.4680 C   0  0  2  0  0  0
   -0.2098    0.0657    1.0720 C   0  0  2  0  0  0
   -1.0910   -1.0903    1.5387 C   0  0  1  0  0  0
   -1.7098    0.8153    2.7452 C   0  0  2  0  0  0
   -3.2560    1.7671    1.3668 C   0  0
   -4.4475    0.9586    0.8718 C   0  0
   -3.5327    3.2639    1.2831 C   0  0
    1.7244   -4.2138   -0.9153 C   0  0
   -0.3587   -2.3799    1.8619 C   0  0
    0.2841   -5.3363    0.9599 O   0  0
    2.3373   -4.0052    1.6208 O   0  0
   -2.1185    1.4546    0.5538 O   0  0
   -1.7712   -0.6206    2.7185 O   0  0
   -2.9938    1.4283    2.7339 O   0  0
    1.0192    0.0857    1.7854 O   0  0
    0.3100   -2.8323    0.6957 O   0  0
    1.1803   -4.2132    0.7739 S   0  0
   -0.4857    2.1985    1.5794 H   0  0
   -0.0013    0.0086   -0.0008 H   0  0
   -1.8635   -1.2914    0.7887 H   0  0
   -1.1619    1.1092    3.6456 H   0  0
   -4.2298   -0.1076    0.9397 H   0  0
   -4.6634    1.2093   -0.1671 H   0  0
   -5.3265    1.1788    1.4783 H   0  0
   -2.6685    3.8227    1.6417 H   0  0
   -4.3975    3.5171    1.8960 H   0  0
   -3.7347    3.5477    0.2505 H   0  0
    2.3999   -3.3692   -1.0598 H   0  0
    2.2414   -5.1546   -1.1102 H   0  0
    0.8488   -4.1178   -1.5590 H   0  0
   -1.0659   -3.1475    2.1859 H   0  0
    0.3783   -2.2113    2.6509 H   0  0
    1.4690    0.9123    1.5462 H   0  0
  1  2  1  0
  1  4  1  0
  1 12  1  0
  2  3  1  0
  2 15  1  0
  3  9  1  0
  3 13  1  0
  4 13  1  0
  4 14  1  0
  5  6  1  0
  5  7  1  0
  5 12  1  0
  5 14  1  0
  8 17  1  0
  9 16  1  0
 10 17  2  0
 11 17  2  0
 16 17  1  0
  1 18  1  0
  2 19  1  0
  3 20  1  0
  4 21  1  0
  6 22  1  0
  6 23  1  0
  6 24  1  0
  7 25  1  0
  7 26  1  0
  7 27  1  0
  8 28  1  0
  8 29  1  0
  8 30  1  0
  9 31  1  0
  9 32  1  0
 15 33  1  0
M  END
> <Name>
BR020310

$$$$
BR020311
  SciTegic05062102053D

 39 40  0  0  1  0            999 V2000
   -1.0397    1.2611    1.4680 C   0  0  2  0  0  0
   -0.2098    0.0657    1.0720 C   0  0  2  0  0  0
   -1.0910   -1.0903    1.5387 C   0  0  1  0  0  0
   -1.7098    0.8153    2.7452 C   0  0  2  0  0  0
   -3.2560    1.7671    1.3668 C   0  0
   -4.4475    0.9586    0.8718 C   0  0
   -3.5327    3.2639    1.2831 C   0  0
    3.5460    0.2233    2.0825 C   0  0
    1.7244   -4.2138   -0.9153 C   0  0
   -0.3587   -2.3799    1.8619 C   0  0
    2.0702    2.3724    1.8509 O   0  0
    2.3894    0.8792   -0.1721 O   0  0
    0.2841   -5.3363    0.9599 O   0  0
    2.3373   -4.0052    1.6208 O   0  0
   -2.1185    1.4546    0.5538 O   0  0
   -1.7712   -0.6206    2.7185 O   0  0
   -2.9938    1.4283    2.7339 O   0  0
    1.0192    0.0857    1.7854 O   0  0
    0.3100   -2.8323    0.6957 O   0  0
    2.2176    1.0600    1.2551 S   0  0
    1.1803   -4.2132    0.7739 S   0  0
   -0.4857    2.1985    1.5794 H   0  0
   -0.0013    0.0086   -0.0008 H   0  0
   -1.8635   -1.2914    0.7887 H   0  0
   -1.1619    1.1092    3.6456 H   0  0
   -4.2298   -0.1076    0.9397 H   0  0
   -4.6634    1.2093   -0.1671 H   0  0
   -5.3265    1.1788    1.4783 H   0  0
   -2.6685    3.8227    1.6417 H   0  0
   -4.3975    3.5171    1.8960 H   0  0
   -3.7347    3.5477    0.2505 H   0  0
    3.6606   -0.7660    1.6367 H   0  0
    4.4568    0.8095    1.9516 H   0  0
    3.2939    0.1391    3.1406 H   0  0
    2.3999   -3.3692   -1.0598 H   0  0
    2.2414   -5.1546   -1.1102 H   0  0
    0.8488   -4.1178   -1.5590 H   0  0
   -1.0659   -3.1475    2.1859 H   0  0
    0.3783   -2.2113    2.6509 H   0  0
  1  2  1  0
  1  4  1  0
  1 15  1  0
  2  3  1  0
  2 18  1  0
  3 10  1  0
  3 16  1  0
  4 16  1  0
  4 17  1  0
  5  6  1  0
  5  7  1  0
  5 15  1  0
  5 17  1  0
  8 20  1  0
  9 21  1  0
 10 19  1  0
 11 20  2  0
 12 20  2  0
 13 21  2  0
 14 21  2  0
 18 20  1  0
 19 21  1  0
  1 22  1  0
  2 23  1  0
  3 24  1  0
  4 25  1  0
  6 26  1  0
  6 27  1  0
  6 28  1  0
  7 29  1  0
  7 30  1  0
  7 31  1  0
  8 32  1  0
  8 33  1  0
  8 34  1  0
  9 35  1  0
  9 36  1  0
  9 37  1  0
 10 38  1  0
 10 39  1  0
M  END
> <Name>
BR020311

$$$$
BR020312
  SciTegic05062102053D

 55 58  0  0  1  0            999 V2000
    4.3148   -6.6091   -4.2222 C   0  0
    5.5847    0.5285    3.5799 C   0  0
    3.9101   -5.2844   -4.0577 C   0  0
    4.0925   -7.5377   -3.2053 C   0  0
    5.6396    1.0975    2.3076 C   0  0
    4.3850   -0.0005    4.0561 C   0  0
    3.2833   -4.8883   -2.8763 C   0  0
    3.4657   -7.1415   -2.0239 C   0  0
    4.4950    1.1377    1.5115 C   0  0
    3.2403    0.0397    3.2600 C   0  0
    3.0610   -5.8168   -1.8594 C   0  0
    3.2953    0.6088    1.9877 C   0  0
    2.3990   -5.3989   -0.6110 C   0  0
    1.6425   -4.2997   -0.4817 C   0  0
    2.0769    0.6516    1.1403 C   0  0
    1.0201   -3.9921    0.8260 C   0  0
   -1.0397    1.2611    1.4680 C   0  0  2  0  0  0
   -0.2098    0.0657    1.0720 C   0  0  2  0  0  0
   -1.0910   -1.0903    1.5387 C   0  0  1  0  0  0
   -1.7098    0.8153    2.7452 C   0  0  2  0  0  0
   -3.2560    1.7671    1.3668 C   0  0
   -4.4475    0.9586    0.8718 C   0  0
   -3.5327    3.2639    1.2831 C   0  0
   -0.3587   -2.3799    1.8619 C   0  0
    2.0575    1.1351    0.0190 O   0  0
    1.1304   -4.6648    1.8387 O   0  0
   -2.1185    1.4546    0.5538 O   0  0
   -1.7712   -0.6206    2.7185 O   0  0
   -2.9938    1.4283    2.7339 O   0  0
    1.0192    0.0857    1.7854 O   0  0
    0.3100   -2.8323    0.6957 O   0  0
    4.8017   -6.9178   -5.1426 H   0  0
    6.4759    0.4972    4.1997 H   0  0
    4.0820   -4.5614   -4.8499 H   0  0
    4.4065   -8.5694   -3.3338 H   0  0
    6.5737    1.5095    1.9370 H   0  0
    4.3423   -0.4439    5.0466 H   0  0
    2.9736   -3.8521   -2.7627 H   0  0
    3.2995   -7.8771   -1.2404 H   0  0
    4.5490    1.5835    0.5216 H   0  0
    2.3110   -0.3754    3.6415 H   0  0
    2.5430   -6.0661    0.2359 H   0  0
    1.4538   -3.6202   -1.3056 H   0  0
   -0.4857    2.1985    1.5794 H   0  0
   -0.0013    0.0086   -0.0008 H   0  0
   -1.8635   -1.2914    0.7887 H   0  0
   -1.1619    1.1092    3.6456 H   0  0
   -4.2298   -0.1076    0.9397 H   0  0
   -4.6634    1.2093   -0.1671 H   0  0
   -5.3265    1.1788    1.4783 H   0  0
   -2.6685    3.8227    1.6417 H   0  0
   -4.3975    3.5171    1.8960 H   0  0
   -3.7347    3.5477    0.2505 H   0  0
   -1.0659   -3.1475    2.1859 H   0  0
    0.3783   -2.2113    2.6509 H   0  0
  1  3  2  0
  1  4  1  0
  2  5  1  0
  2  6  2  0
  3  7  1  0
  4  8  2  0
  5  9  2  0
  6 10  1  0
  7 11  2  0
  8 11  1  0
  9 12  1  0
 10 12  2  0
 11 13  1  0
 12 15  1  0
 13 14  2  0
 14 16  1  0
 15 25  2  0
 15 30  1  0
 16 26  2  0
 16 31  1  0
 17 18  1  0
 17 20  1  0
 17 27  1  0
 18 19  1  0
 18 30  1  0
 19 24  1  0
 19 28  1  0
 20 28  1  0
 20 29  1  0
 21 22  1  0
 21 23  1  0
 21 27  1  0
 21 29  1  0
 24 31  1  0
  1 32  1  0
  2 33  1  0
  3 34  1  0
  4 35  1  0
  5 36  1  0
  6 37  1  0
  7 38  1  0
  8 39  1  0
  9 40  1  0
 10 41  1  0
 13 42  1  0
 14 43  1  0
 17 44  1  0
 18 45  1  0
 19 46  1  0
 20 47  1  0
 22 48  1  0
 22 49  1  0
 22 50  1  0
 23 51  1  0
 23 52  1  0
 23 53  1  0
 24 54  1  0
 24 55  1  0
M  END
> <Name>
BR020312

$$$$
BR020313
  SciTegic05062102053D

 56 59  0  0  1  0            999 V2000
    8.0159    1.0661    3.9155 C   0  0
    2.2047   -4.9592   -3.4909 C   0  0
    6.9804    0.1873    4.2330 C   0  0
    7.8780    1.9485    2.8439 C   0  0
    1.1695   -5.7828   -3.0485 C   0  0
    2.4374   -3.7344   -2.8653 C   0  0
    5.8070    0.1906    3.4788 C   0  0
    6.7046    1.9518    2.0898 C   0  0
    0.3669   -5.3815   -1.9806 C   0  0
    1.6348   -3.3331   -1.7974 C   0  0
    5.6690    1.0729    2.4072 C   0  0
    0.5996   -4.1567   -1.3550 C   0  0
    4.4297    1.0768    1.6102 C   0  0
    3.2555    0.5812    2.0261 C   0  0
   -0.2553   -3.7293   -0.2176 C   0  0
    2.0759    0.6540    1.1344 C   0  0
   -1.0397    1.2611    1.4680 C   0  0  2  0  0  0
   -0.2098    0.0657    1.0720 C   0  0  2  0  0  0
   -1.0910   -1.0903    1.5387 C   0  0  1  0  0  0
   -1.7098    0.8153    2.7452 C   0  0  2  0  0  0
   -3.2560    1.7671    1.3668 C   0  0
   -4.4475    0.9586    0.8718 C   0  0
   -3.5327    3.2639    1.2831 C   0  0
   -0.3587   -2.3799    1.8619 C   0  0
    0.3267   -2.8593    0.7052 N   0  0
   -1.4002   -4.1655   -0.1305 O   0  0
    2.0637    1.1389    0.0141 O   0  0
   -2.1185    1.4546    0.5538 O   0  0
   -1.7712   -0.6206    2.7185 O   0  0
   -2.9938    1.4283    2.7339 O   0  0
    1.0192    0.0857    1.7854 O   0  0
    8.9290    1.0645    4.5034 H   0  0
    2.8296   -5.2717   -4.3224 H   0  0
    7.0871   -0.4990    5.0680 H   0  0
    8.6838    2.6336    2.5973 H   0  0
    0.9884   -6.7364   -3.5359 H   0  0
    3.2436   -3.0933   -3.2096 H   0  0
    5.0085   -0.5005    3.7385 H   0  0
    6.6122    2.6455    1.2575 H   0  0
   -0.4370   -6.0311   -1.6439 H   0  0
    1.8252   -2.3766   -1.3175 H   0  0
    4.5107    1.5405    0.6296 H   0  0
    3.1249    0.1318    3.0044 H   0  0
   -0.4857    2.1985    1.5794 H   0  0
   -0.0013    0.0086   -0.0008 H   0  0
   -1.8635   -1.2914    0.7887 H   0  0
   -1.1619    1.1092    3.6456 H   0  0
   -4.2298   -0.1076    0.9397 H   0  0
   -4.6634    1.2093   -0.1671 H   0  0
   -5.3265    1.1788    1.4783 H   0  0
   -2.6685    3.8227    1.6417 H   0  0
   -4.3975    3.5171    1.8960 H   0  0
   -3.7347    3.5477    0.2505 H   0  0
   -1.0773   -3.1278    2.1810 H   0  0
    0.3648   -2.1970    2.6492 H   0  0
    1.3083   -2.5969    0.5866 H   0  0
  1  3  2  0
  1  4  1  0
  2  5  1  0
  2  6  2  0
  3  7  1  0
  4  8  2  0
  5  9  2  0
  6 10  1  0
  7 11  2  0
  8 11  1  0
  9 12  1  0
 10 12  2  0
 11 13  1  0
 12 15  1  0
 13 14  2  0
 14 16  1  0
 15 25  1  0
 15 26  2  0
 16 27  2  0
 16 31  1  0
 17 18  1  0
 17 20  1  0
 17 28  1  0
 18 19  1  0
 18 31  1  0
 19 24  1  0
 19 29  1  0
 20 29  1  0
 20 30  1  0
 21 22  1  0
 21 23  1  0
 21 28  1  0
 21 30  1  0
 24 25  1  0
  1 32  1  0
  2 33  1  0
  3 34  1  0
  4 35  1  0
  5 36  1  0
  6 37  1  0
  7 38  1  0
  8 39  1  0
  9 40  1  0
 10 41  1  0
 13 42  1  0
 14 43  1  0
 17 44  1  0
 18 45  1  0
 19 46  1  0
 20 47  1  0
 22 48  1  0
 22 49  1  0
 22 50  1  0
 23 51  1  0
 23 52  1  0
 23 53  1  0
 24 54  1  0
 24 55  1  0
 25 56  1  0
M  END
> <Name>
BR020313

$$$$
BR020314
  SciTegic05062102053D

 56 59  0  0  1  0            999 V2000
    5.0619   -5.2670   -4.5665 C   0  0
    5.5847    0.5284    3.5798 C   0  0
    3.8010   -4.6709   -4.5479 C   0  0
    5.7979   -5.3790   -3.3869 C   0  0
    5.6997    0.4862    2.1903 C   0  0
    4.3251    0.6107    4.1732 C   0  0
    3.2762   -4.1866   -3.3497 C   0  0
    5.2731   -4.8948   -2.1887 C   0  0
    4.5550    0.5264    1.3943 C   0  0
    3.1804    0.6509    3.3772 C   0  0
    4.0122   -4.2986   -2.1701 C   0  0
    3.2953    0.6088    1.9877 C   0  0
    3.4583   -3.7870   -0.9039 C   0  0
    2.1562   -3.5550   -0.6817 C   0  0
    2.0769    0.6516    1.1403 C   0  0
    1.7078   -3.0449    0.6455 C   0  0
   -1.0397    1.2611    1.4680 C   0  0  2  0  0  0
   -0.2098    0.0657    1.0720 C   0  0  2  0  0  0
   -1.0910   -1.0903    1.5387 C   0  0  1  0  0  0
   -1.7098    0.8153    2.7452 C   0  0  2  0  0  0
   -3.2560    1.7671    1.3668 C   0  0
   -4.4475    0.9586    0.8718 C   0  0
   -3.5327    3.2639    1.2831 C   0  0
   -0.3587   -2.3799    1.8619 C   0  0
    0.3267   -2.8593    0.7052 N   0  0
    2.0575    1.1351    0.0190 O   0  0
    2.4889   -2.8224    1.5648 O   0  0
   -2.1185    1.4546    0.5538 O   0  0
   -1.7712   -0.6206    2.7185 O   0  0
   -2.9938    1.4283    2.7339 O   0  0
    1.0192    0.0857    1.7854 O   0  0
    5.4700   -5.6452   -5.4992 H   0  0
    6.4760    0.4971    4.1995 H   0  0
    3.2272   -4.5846   -5.4661 H   0  0
    6.7792   -5.8443   -3.4011 H   0  0
    6.6806    0.4223    1.7284 H   0  0
    4.2355    0.6433    5.2551 H   0  0
    2.2919   -3.7243   -3.3511 H   0  0
    5.8590   -4.9894   -1.2776 H   0  0
    4.6561    0.4929    0.3125 H   0  0
    2.2039    0.7152    3.8505 H   0  0
    4.1878   -3.6173   -0.1153 H   0  0
    1.4010   -3.7364   -1.4390 H   0  0
   -0.4857    2.1985    1.5794 H   0  0
   -0.0013    0.0086   -0.0008 H   0  0
   -1.8635   -1.2914    0.7887 H   0  0
   -1.1619    1.1092    3.6456 H   0  0
   -4.2298   -0.1076    0.9397 H   0  0
   -4.6634    1.2093   -0.1671 H   0  0
   -5.3265    1.1788    1.4783 H   0  0
   -2.6685    3.8227    1.6417 H   0  0
   -4.3975    3.5171    1.8960 H   0  0
   -3.7347    3.5477    0.2505 H   0  0
   -1.0773   -3.1278    2.1810 H   0  0
    0.3648   -2.1970    2.6492 H   0  0
   -0.2270   -3.0794   -0.1280 H   0  0
  1  3  2  0
  1  4  1  0
  2  5  1  0
  2  6  2  0
  3  7  1  0
  4  8  2  0
  5  9  2  0
  6 10  1  0
  7 11  2  0
  8 11  1  0
  9 12  1  0
 10 12  2  0
 11 13  1  0
 12 15  1  0
 13 14  2  0
 14 16  1  0
 15 26  2  0
 15 31  1  0
 16 25  1  0
 16 27  2  0
 17 18  1  0
 17 20  1  0
 17 28  1  0
 18 19  1  0
 18 31  1  0
 19 24  1  0
 19 29  1  0
 20 29  1  0
 20 30  1  0
 21 22  1  0
 21 23  1  0
 21 28  1  0
 21 30  1  0
 24 25  1  0
  1 32  1  0
  2 33  1  0
  3 34  1  0
  4 35  1  0
  5 36  1  0
  6 37  1  0
  7 38  1  0
  8 39  1  0
  9 40  1  0
 10 41  1  0
 13 42  1  0
 14 43  1  0
 17 44  1  0
 18 45  1  0
 19 46  1  0
 20 47  1  0
 22 48  1  0
 22 49  1  0
 22 50  1  0
 23 51  1  0
 23 52  1  0
 23 53  1  0
 24 54  1  0
 24 55  1  0
 25 56  1  0
M  END
> <Name>
BR020314

$$$$
BR020315
  SciTegic05062102053D

 38 40  0  0  1  0            999 V2000
    5.2821    2.0844   -3.6422 C   0  0
    4.4436    2.8751   -2.8565 C   0  0
    4.9340    0.7630   -3.9222 C   0  0
    3.2570    2.3443   -2.3506 C   0  0
    3.7474    0.2322   -3.4163 C   0  0
    2.9089    1.0229   -2.6305 C   0  0
    0.7536   -0.7582   -0.2457 C   0  0
    1.6257    0.4481   -2.0834 C   0  0  2  0  0  0
    0.2151   -1.7931   -1.2255 C   0  0  2  0  0  0
   -0.0779   -1.1034   -2.5572 C   0  0  2  0  0  0
   -0.6050   -2.1192   -3.5690 C   0  0  1  0  0  0
   -1.7854   -2.8840   -2.9612 C   0  0  2  0  0  0
   -1.4587   -3.4395   -1.5676 C   0  0  2  0  0  0
   -0.6453   -5.3325   -0.4379 C   0  0
    1.9092   -0.1323   -0.8029 O   0  0
    1.1232   -0.4987   -3.0381 O   0  0
   -0.9572   -2.4111   -0.7042 O   0  0
   -1.0365   -1.4350   -4.7461 O   0  0
   -2.1668   -3.9390   -3.8368 O   0  0
   -0.5801   -4.5629   -1.6280 O   0  0
    6.2054    2.4982   -4.0372 H   0  0
    4.7140    3.9043   -2.6393 H   0  0
    5.5860    0.1474   -4.5348 H   0  0
    2.6100    2.9677   -1.7391 H   0  0
    3.4843   -0.7984   -3.6394 H   0  0
   -0.0001    0.0004   -0.0011 H   0  0
    1.0374   -1.2354    0.6983 H   0  0
    0.9053    1.2763   -1.9643 H   0  0
    1.0031   -2.5458   -1.3679 H   0  0
   -0.8348   -0.3158   -2.4316 H   0  0
    0.1943   -2.8093   -3.8850 H   0  0
   -2.6377   -2.1982   -2.8861 H   0  0
   -2.4044   -3.8077   -1.1078 H   0  0
    0.0368   -6.1827   -0.5150 H   0  0
   -1.6687   -5.6852   -0.2867 H   0  0
   -0.3493   -4.7063    0.4071 H   0  0
   -1.7371   -0.8259   -4.4678 H   0  0
   -2.9128   -4.3942   -3.4153 H   0  0
  1  2  2  0
  1  3  1  0
  2  4  1  0
  3  5  2  0
  4  6  2  0
  5  6  1  0
  6  8  1  0
  7  9  1  0
  7 15  1  0
  8 15  1  0
  8 16  1  0
  9 10  1  0
  9 17  1  0
 10 11  1  0
 10 16  1  0
 11 12  1  0
 11 18  1  0
 12 13  1  0
 12 19  1  0
 13 17  1  0
 13 20  1  0
 14 20  1  0
  1 21  1  0
  2 22  1  0
  3 23  1  0
  4 24  1  0
  5 25  1  0
  7 26  1  0
  7 27  1  0
  8 28  1  0
  9 29  1  0
 10 30  1  0
 11 31  1  0
 12 32  1  0
 13 33  1  0
 14 34  1  0
 14 35  1  0
 14 36  1  0
 18 37  1  0
 19 38  1  0
M  END
> <Name>
BR020315

$$$$
BR020316
  SciTegic05062102053D

 64 68  0  0  1  0            999 V2000
    5.2821    2.0844   -3.6422 C   0  0
   -1.3751   -0.3777   -9.5586 C   0  0
   -4.4777   -7.5502   -6.2903 C   0  0
    4.4436    2.8751   -2.8565 C   0  0
    4.9340    0.7630   -3.9222 C   0  0
   -0.9926   -1.6644   -9.1796 C   0  0
   -1.2905    0.6727   -8.6447 C   0  0
   -4.7427   -6.2259   -6.6391 C   0  0
   -3.8923   -7.8433   -5.0586 C   0  0
    3.2570    2.3443   -2.3506 C   0  0
    3.7474    0.2322   -3.4163 C   0  0
   -0.5254   -1.9007   -7.8867 C   0  0
   -0.8234    0.4364   -7.3518 C   0  0
   -4.4222   -5.1947   -5.7562 C   0  0
   -3.5719   -6.8121   -4.1757 C   0  0
    2.9089    1.0229   -2.6305 C   0  0
   -0.4408   -0.8503   -6.9728 C   0  0
   -3.8368   -5.4878   -4.5244 C   0  0
    0.7536   -0.7582   -0.2457 C   0  0
    1.6257    0.4481   -2.0834 C   0  0  2  0  0  0
    0.2151   -1.7931   -1.2255 C   0  0  2  0  0  0
   -0.0779   -1.1034   -2.5572 C   0  0  2  0  0  0
   -0.6050   -2.1192   -3.5690 C   0  0  1  0  0  0
   -1.7854   -2.8840   -2.9612 C   0  0  2  0  0  0
   -1.4587   -3.4395   -1.5676 C   0  0  2  0  0  0
   -0.6453   -5.3325   -0.4379 C   0  0
    0.0614   -1.1039   -5.5818 C   0  0
   -3.4916   -4.3789   -3.5743 C   0  0
    1.9092   -0.1323   -0.8029 O   0  0
    1.1232   -0.4987   -3.0381 O   0  0
   -0.9572   -2.4111   -0.7042 O   0  0
   -1.0365   -1.4350   -4.7461 O   0  0
   -2.1668   -3.9390   -3.8368 O   0  0
   -0.5801   -4.5629   -1.6280 O   0  0
    6.2054    2.4982   -4.0372 H   0  0
   -1.7376   -0.1936  -10.5658 H   0  0
   -4.7285   -8.3531   -6.9774 H   0  0
    4.7140    3.9043   -2.6393 H   0  0
    5.5860    0.1474   -4.5348 H   0  0
   -1.0573   -2.4822   -9.8914 H   0  0
   -1.5873    1.6748   -8.9398 H   0  0
   -5.1994   -5.9976   -7.5977 H   0  0
   -3.6869   -8.8743   -4.7863 H   0  0
    2.6100    2.9677   -1.7391 H   0  0
    3.4843   -0.7984   -3.6394 H   0  0
   -0.2297   -2.9066   -7.6002 H   0  0
   -0.7610    1.2609   -6.6465 H   0  0
   -4.6321   -4.1658   -6.0364 H   0  0
   -3.1159   -7.0499   -3.2182 H   0  0
   -0.0001    0.0004   -0.0011 H   0  0
    1.0374   -1.2354    0.6983 H   0  0
    0.9053    1.2763   -1.9643 H   0  0
    1.0031   -2.5458   -1.3679 H   0  0
   -0.8348   -0.3158   -2.4316 H   0  0
    0.1943   -2.8093   -3.8850 H   0  0
   -2.6377   -2.1982   -2.8861 H   0  0
   -2.4044   -3.8077   -1.1078 H   0  0
    0.0368   -6.1827   -0.5150 H   0  0
   -1.6687   -5.6852   -0.2867 H   0  0
   -0.3493   -4.7063    0.4071 H   0  0
    0.7812   -1.9294   -5.5695 H   0  0
    0.5617   -0.2152   -5.1822 H   0  0
   -4.1785   -3.5339   -3.6922 H   0  0
   -3.5569   -4.7232   -2.5365 H   0  0
  1  4  2  0
  1  5  1  0
  2  6  1  0
  2  7  2  0
  3  8  1  0
  3  9  2  0
  4 10  1  0
  5 11  2  0
  6 12  2  0
  7 13  1  0
  8 14  2  0
  9 15  1  0
 10 16  2  0
 11 16  1  0
 12 17  1  0
 13 17  2  0
 14 18  1  0
 15 18  2  0
 16 20  1  0
 17 27  1  0
 18 28  1  0
 19 21  1  0
 19 29  1  0
 20 29  1  0
 20 30  1  0
 21 22  1  0
 21 31  1  0
 22 23  1  0
 22 30  1  0
 23 24  1  0
 23 32  1  0
 24 25  1  0
 24 33  1  0
 25 31  1  0
 25 34  1  0
 26 34  1  0
 27 32  1  0
 28 33  1  0
  1 35  1  0
  2 36  1  0
  3 37  1  0
  4 38  1  0
  5 39  1  0
  6 40  1  0
  7 41  1  0
  8 42  1  0
  9 43  1  0
 10 44  1  0
 11 45  1  0
 12 46  1  0
 13 47  1  0
 14 48  1  0
 15 49  1  0
 19 50  1  0
 19 51  1  0
 20 52  1  0
 21 53  1  0
 22 54  1  0
 23 55  1  0
 24 56  1  0
 25 57  1  0
 26 58  1  0
 26 59  1  0
 26 60  1  0
 27 61  1  0
 27 62  1  0
 28 63  1  0
 28 64  1  0
M  END
> <Name>
BR020316

$$$$
BR020317
  SciTegic05062102053D

 53 55  0  0  1  0            999 V2000
    4.0763   -5.6551   -0.0601 C   0  0
    5.5411   -0.5551    7.0867 C   0  0
    3.3613   -5.4732    1.1236 C   0  0
    4.5331   -4.5485   -0.7761 C   0  0
    4.7984   -1.6069    6.5503 C   0  0
    5.1930    0.7640    6.7958 C   0  0
    3.1029   -4.1847    1.5914 C   0  0
    4.2747   -3.2601   -0.3083 C   0  0
    3.7077   -1.3396    5.7229 C   0  0
    4.1023    1.0312    5.9684 C   0  0
    3.5596   -3.0781    0.8754 C   0  0
    3.3596   -0.0205    5.4320 C   0  0
    1.9514    0.1836    0.8896 C   0  0  1  0  0  0
    0.8918    0.6285   -0.1205 C   0  0  1  0  0  0
    1.5562    0.6052    2.3034 C   0  0  2  0  0  0
    0.5380    2.1106    0.0630 C   0  0  1  0  0  0
    1.1766    2.0855    2.3663 C   0  0  2  0  0  0
    2.0291    4.2445    2.7304 C   0  0
    3.2818   -1.6918    1.3779 C   0  0
    2.1866    0.2676    4.5418 C   0  0
   -0.6270    2.5360   -0.8266 C   0  0
    0.1510    2.3791    1.4155 O   0  0
    1.4072    0.4010   -1.4301 O   0  0
   -0.8964    3.9056   -0.5907 O   0  0
    2.0502   -1.2415    0.8372 O   0  0
    2.6319    0.3331    3.1946 O   0  0
    2.3050    2.9468    2.2268 O   0  0
    4.2786   -6.6584   -0.4234 H   0  0
    6.3895   -0.7633    7.7320 H   0  0
    3.0065   -6.3347    1.6818 H   0  0
    5.0908   -4.6898   -1.6971 H   0  0
    5.0686   -2.6340    6.7776 H   0  0
    5.7704    1.5831    7.2141 H   0  0
    2.5448   -4.0526    2.5146 H   0  0
    4.6344   -2.4038   -0.8728 H   0  0
    3.1349   -2.1655    5.3093 H   0  0
    3.8386    2.0621    5.7471 H   0  0
    2.9381    0.5738    0.6187 H   0  0
    0.0000    0.0003    0.0011 H   0  0
    0.7036   -0.0060    2.6232 H   0  0
    1.3968    2.7418   -0.2005 H   0  0
    0.7465    2.2944    3.3737 H   0  0
    2.9110    4.8783    2.6092 H   0  0
    1.7588    4.1763    3.7872 H   0  0
    1.1951    4.6734    2.1700 H   0  0
    3.2187   -1.6767    2.4713 H   0  0
    4.0791   -1.0035    1.0774 H   0  0
    1.4266   -0.5163    4.6290 H   0  0
    1.7194    1.2207    4.8124 H   0  0
   -1.5120    1.9475   -0.5858 H   0  0
   -0.3647    2.3950   -1.8748 H   0  0
    2.2156    0.9314   -1.5045 H   0  0
   -1.6398    4.1539   -1.1664 H   0  0
  1  3  1  0
  1  4  2  0
  2  5  1  0
  2  6  2  0
  3  7  2  0
  4  8  1  0
  5  9  2  0
  6 10  1  0
  7 11  1  0
  8 11  2  0
  9 12  1  0
 10 12  2  0
 11 19  1  0
 12 20  1  0
 13 14  1  0
 13 15  1  0
 13 25  1  0
 14 16  1  0
 14 23  1  0
 15 17  1  0
 15 26  1  0
 16 21  1  0
 16 22  1  0
 17 22  1  0
 17 27  1  0
 18 27  1  0
 19 25  1  0
 20 26  1  0
 21 24  1  0
  1 28  1  0
  2 29  1  0
  3 30  1  0
  4 31  1  0
  5 32  1  0
  6 33  1  0
  7 34  1  0
  8 35  1  0
  9 36  1  0
 10 37  1  0
 13 38  1  0
 14 39  1  0
 15 40  1  0
 16 41  1  0
 17 42  1  0
 18 43  1  0
 18 44  1  0
 18 45  1  0
 19 46  1  0
 19 47  1  0
 20 48  1  0
 20 49  1  0
 21 50  1  0
 21 51  1  0
 23 52  1  0
 24 53  1  0
M  END
> <Name>
BR020317

$$$$
BR020318
  SciTegic05062102053D

 52 54  0  0  1  0            999 V2000
    4.0763   -5.6551   -0.0601 C   0  0
    5.5411   -0.5551    7.0867 C   0  0
    3.3613   -5.4732    1.1236 C   0  0
    4.5331   -4.5485   -0.7761 C   0  0
    4.7984   -1.6069    6.5503 C   0  0
    5.1930    0.7640    6.7958 C   0  0
    3.1029   -4.1847    1.5914 C   0  0
    4.2747   -3.2601   -0.3083 C   0  0
    3.7077   -1.3396    5.7229 C   0  0
    4.1023    1.0312    5.9684 C   0  0
    3.5596   -3.0781    0.8754 C   0  0
    3.3596   -0.0205    5.4320 C   0  0
    1.9514    0.1836    0.8896 C   0  0  1  0  0  0
    0.8918    0.6285   -0.1205 C   0  0  1  0  0  0
    1.5562    0.6052    2.3034 C   0  0  2  0  0  0
    0.5380    2.1106    0.0630 C   0  0  1  0  0  0
    1.1766    2.0855    2.3663 C   0  0  2  0  0  0
    2.0291    4.2445    2.7304 C   0  0
    3.2818   -1.6918    1.3779 C   0  0
    2.1866    0.2676    4.5418 C   0  0
   -0.6270    2.5360   -0.8266 C   0  0
    0.1510    2.3791    1.4155 O   0  0
    1.4072    0.4010   -1.4301 O   0  0
    2.0502   -1.2415    0.8372 O   0  0
    2.6319    0.3331    3.1946 O   0  0
    2.3050    2.9468    2.2268 O   0  0
   -0.6242    4.6457   -1.1122 I   0  0
    4.2786   -6.6584   -0.4234 H   0  0
    6.3895   -0.7633    7.7320 H   0  0
    3.0065   -6.3347    1.6818 H   0  0
    5.0908   -4.6898   -1.6971 H   0  0
    5.0686   -2.6340    6.7776 H   0  0
    5.7704    1.5831    7.2141 H   0  0
    2.5448   -4.0526    2.5146 H   0  0
    4.6344   -2.4038   -0.8728 H   0  0
    3.1349   -2.1655    5.3093 H   0  0
    3.8386    2.0621    5.7471 H   0  0
    2.9381    0.5738    0.6187 H   0  0
    0.0000    0.0003    0.0011 H   0  0
    0.7036   -0.0060    2.6232 H   0  0
    1.3968    2.7418   -0.2005 H   0  0
    0.7465    2.2944    3.3737 H   0  0
    2.9110    4.8783    2.6092 H   0  0
    1.7588    4.1763    3.7872 H   0  0
    1.1951    4.6734    2.1700 H   0  0
    3.2187   -1.6767    2.4713 H   0  0
    4.0791   -1.0035    1.0774 H   0  0
    1.4266   -0.5163    4.6290 H   0  0
    1.7194    1.2207    4.8124 H   0  0
   -1.5654    2.2219   -0.3630 H   0  0
   -0.5472    2.0269   -1.7902 H   0  0
    2.2156    0.9314   -1.5045 H   0  0
  1  3  1  0
  1  4  2  0
  2  5  1  0
  2  6  2  0
  3  7  2  0
  4  8  1  0
  5  9  2  0
  6 10  1  0
  7 11  1  0
  8 11  2  0
  9 12  1  0
 10 12  2  0
 11 19  1  0
 12 20  1  0
 13 14  1  0
 13 15  1  0
 13 24  1  0
 14 16  1  0
 14 23  1  0
 15 17  1  0
 15 25  1  0
 16 21  1  0
 16 22  1  0
 17 22  1  0
 17 26  1  0
 18 26  1  0
 19 24  1  0
 20 25  1  0
 21 27  1  0
  1 28  1  0
  2 29  1  0
  3 30  1  0
  4 31  1  0
  5 32  1  0
  6 33  1  0
  7 34  1  0
  8 35  1  0
  9 36  1  0
 10 37  1  0
 13 38  1  0
 14 39  1  0
 15 40  1  0
 16 41  1  0
 17 42  1  0
 18 43  1  0
 18 44  1  0
 18 45  1  0
 19 46  1  0
 19 47  1  0
 20 48  1  0
 20 49  1  0
 21 50  1  0
 21 51  1  0
 23 52  1  0
M  END
> <Name>
BR020318

$$$$
BR020319
  SciTegic05062102053D

 51 53  0  0  1  0            999 V2000
    6.5371   -3.5656   -0.7541 C   0  0
    4.4178    3.6352    5.0532 C   0  0
    6.6352   -2.2037   -0.4690 C   0  0
    5.3340   -4.0956   -1.2203 C   0  0
    4.6434    2.2670    4.9025 C   0  0
    3.2245    4.1993    4.6019 C   0  0
    5.5302   -1.3719   -0.6499 C   0  0
    4.2290   -3.2639   -1.4011 C   0  0
    3.6757    1.4628    4.3004 C   0  0
    2.2568    3.3951    3.9998 C   0  0
    4.3271   -1.9020   -1.1159 C   0  0
    2.4824    2.0268    3.8490 C   0  0
    1.2414   -0.1316   -0.2349 C   0  0  2  0  0  0
    0.7154    0.3092    1.1355 C   0  0  2  0  0  0
    0.1469   -0.8323   -1.0631 C   0  0  2  0  0  0
   -1.1178    0.0470   -1.0881 C   0  0  1  0  0  0
   -0.5890    1.1009    0.9960 C   0  0  2  0  0  0
   -1.3802    3.2922    0.6859 C   0  0
    3.1379   -1.0078   -1.3105 C   0  0
    1.4411    1.1624    3.2010 C   0  0
   -2.2961   -0.5359   -1.8612 C   0  0
   -1.5554    0.3645    0.2404 O   0  0
    2.3855   -0.9685   -0.1066 O   0  0
    1.6793    1.1198    1.8021 O   0  0
   -0.3269    2.3799    0.4183 O   0  0
   -0.2832   -2.8529   -0.2385 I   0  0
   -3.6530    1.0004   -2.4380 I   0  0
    7.3980   -4.2129   -0.6145 H   0  0
    5.1708    4.2610    5.5233 H   0  0
    7.5722   -1.7906   -0.1071 H   0  0
    5.2576   -5.1557   -1.4434 H   0  0
    5.5720    1.8275    5.2548 H   0  0
    3.0481    5.2643    4.7201 H   0  0
    5.6158   -0.3121   -0.4249 H   0  0
    3.2956   -3.6857   -1.7646 H   0  0
    3.8601    0.3978    4.1869 H   0  0
    1.3302    3.8433    3.6511 H   0  0
    1.5806    0.7560   -0.7861 H   0  0
    0.5480   -0.5689    1.7691 H   0  0
    0.5104   -1.0097   -2.0811 H   0  0
   -0.8617    0.9885   -1.5930 H   0  0
   -1.0052    1.2797    1.9937 H   0  0
   -1.1501    4.2590    0.2317 H   0  0
   -1.5005    3.4046    1.7664 H   0  0
   -2.3062    2.9018    0.2569 H   0  0
    3.4508    0.0094   -1.5695 H   0  0
    2.5011   -1.3803   -2.1201 H   0  0
    1.4745    0.1429    3.6002 H   0  0
    0.4376    1.5621    3.3826 H   0  0
   -2.8083   -1.2717   -1.2356 H   0  0
   -1.9232   -1.0578   -2.7464 H   0  0
  1  3  1  0
  1  4  2  0
  2  5  1  0
  2  6  2  0
  3  7  2  0
  4  8  1  0
  5  9  2  0
  6 10  1  0
  7 11  1  0
  8 11  2  0
  9 12  1  0
 10 12  2  0
 11 19  1  0
 12 20  1  0
 13 14  1  0
 13 15  1  0
 13 23  1  0
 14 17  1  0
 14 24  1  0
 15 16  1  0
 15 26  1  0
 16 21  1  0
 16 22  1  0
 17 22  1  0
 17 25  1  0
 18 25  1  0
 19 23  1  0
 20 24  1  0
 21 27  1  0
  1 28  1  0
  2 29  1  0
  3 30  1  0
  4 31  1  0
  5 32  1  0
  6 33  1  0
  7 34  1  0
  8 35  1  0
  9 36  1  0
 10 37  1  0
 13 38  1  0
 14 39  1  0
 15 40  1  0
 16 41  1  0
 17 42  1  0
 18 43  1  0
 18 44  1  0
 18 45  1  0
 19 46  1  0
 19 47  1  0
 20 48  1  0
 20 49  1  0
 21 50  1  0
 21 51  1  0
M  END
> <Name>
BR020319

$$$$
BR020320
  SciTegic05062102053D

 59 61  0  0  1  0            999 V2000
    4.0763   -5.6551   -0.0601 C   0  0
    5.5411   -0.5551    7.0867 C   0  0
    3.3613   -5.4732    1.1236 C   0  0
    4.5331   -4.5485   -0.7761 C   0  0
    4.7984   -1.6069    6.5503 C   0  0
    5.1930    0.7640    6.7958 C   0  0
    3.1029   -4.1847    1.5914 C   0  0
    4.2747   -3.2601   -0.3083 C   0  0
    3.7077   -1.3396    5.7229 C   0  0
    4.1023    1.0312    5.9684 C   0  0
    3.5596   -3.0781    0.8754 C   0  0
    3.3596   -0.0205    5.4320 C   0  0
    1.9514    0.1836    0.8896 C   0  0  1  0  0  0
    0.8918    0.6285   -0.1205 C   0  0  1  0  0  0
    1.5562    0.6052    2.3034 C   0  0  2  0  0  0
    0.5380    2.1106    0.0630 C   0  0  1  0  0  0
    1.1766    2.0855    2.3663 C   0  0  2  0  0  0
    2.0291    4.2445    2.7304 C   0  0
   -1.9290    6.2379   -0.7000 C   0  0
    3.2818   -1.6918    1.3779 C   0  0
    2.1866    0.2676    4.5418 C   0  0
   -0.6270    2.5360   -0.8266 C   0  0
   -3.3777    4.0771   -0.9874 O   0  0
   -1.7465    4.7135   -2.8199 O   0  0
    0.1510    2.3791    1.4155 O   0  0
    1.4072    0.4010   -1.4301 O   0  0
    2.0502   -1.2415    0.8372 O   0  0
    2.6319    0.3331    3.1946 O   0  0
    2.3050    2.9468    2.2268 O   0  0
   -0.8964    3.9056   -0.5907 O   0  0
   -2.1084    4.6257   -1.4198 S   0  0
    4.2786   -6.6584   -0.4234 H   0  0
    6.3895   -0.7633    7.7320 H   0  0
    3.0065   -6.3347    1.6818 H   0  0
    5.0908   -4.6898   -1.6971 H   0  0
    5.0686   -2.6340    6.7776 H   0  0
    5.7704    1.5831    7.2141 H   0  0
    2.5448   -4.0526    2.5146 H   0  0
    4.6344   -2.4038   -0.8728 H   0  0
    3.1349   -2.1655    5.3093 H   0  0
    3.8386    2.0621    5.7471 H   0  0
    2.9381    0.5738    0.6187 H   0  0
    0.0000    0.0003    0.0011 H   0  0
    0.7036   -0.0060    2.6232 H   0  0
    1.3968    2.7418   -0.2005 H   0  0
    0.7465    2.2944    3.3737 H   0  0
    2.9110    4.8783    2.6092 H   0  0
    1.7588    4.1763    3.7872 H   0  0
    1.1951    4.6734    2.1700 H   0  0
   -0.9739    6.6549   -1.0232 H   0  0
   -2.7549    6.8624   -1.0439 H   0  0
   -1.9535    6.1348    0.3858 H   0  0
    3.2187   -1.6767    2.4713 H   0  0
    4.0791   -1.0035    1.0774 H   0  0
    1.4266   -0.5163    4.6290 H   0  0
    1.7194    1.2207    4.8124 H   0  0
   -1.5120    1.9475   -0.5858 H   0  0
   -0.3647    2.3950   -1.8748 H   0  0
    2.2156    0.9314   -1.5045 H   0  0
  1  3  1  0
  1  4  2  0
  2  5  1  0
  2  6  2  0
  3  7  2  0
  4  8  1  0
  5  9  2  0
  6 10  1  0
  7 11  1  0
  8 11  2  0
  9 12  1  0
 10 12  2  0
 11 20  1  0
 12 21  1  0
 13 14  1  0
 13 15  1  0
 13 27  1  0
 14 16  1  0
 14 26  1  0
 15 17  1  0
 15 28  1  0
 16 22  1  0
 16 25  1  0
 17 25  1  0
 17 29  1  0
 18 29  1  0
 19 31  1  0
 20 27  1  0
 21 28  1  0
 22 30  1  0
 23 31  2  0
 24 31  2  0
 30 31  1  0
  1 32  1  0
  2 33  1  0
  3 34  1  0
  4 35  1  0
  5 36  1  0
  6 37  1  0
  7 38  1  0
  8 39  1  0
  9 40  1  0
 10 41  1  0
 13 42  1  0
 14 43  1  0
 15 44  1  0
 16 45  1  0
 17 46  1  0
 18 47  1  0
 18 48  1  0
 18 49  1  0
 19 50  1  0
 19 51  1  0
 19 52  1  0
 20 53  1  0
 20 54  1  0
 21 55  1  0
 21 56  1  0
 22 57  1  0
 22 58  1  0
 26 59  1  0
M  END
> <Name>
BR020320

$$$$
BR020321
  SciTegic05062102053D

 69 72  0  0  1  0            999 V2000
    4.0763   -5.6551   -0.0601 C   0  0
    5.5411   -0.5551    7.0867 C   0  0
    3.3613   -5.4732    1.1236 C   0  0
    4.5331   -4.5485   -0.7761 C   0  0
    4.7984   -1.6069    6.5503 C   0  0
    5.1930    0.7640    6.7958 C   0  0
    3.1029   -4.1847    1.5914 C   0  0
    4.2747   -3.2601   -0.3083 C   0  0
    3.7077   -1.3396    5.7229 C   0  0
    4.1023    1.0312    5.9684 C   0  0
   -1.3162    8.5725   -1.0141 C   0  0
   -2.8726    7.9660    0.7314 C   0  0
   -1.3206    7.2562   -1.4755 C   0  0
   -2.8771    6.6497    0.2700 C   0  0
   -2.0921    8.9275    0.0893 C   0  0
    3.5596   -3.0781    0.8754 C   0  0
    3.3596   -0.0205    5.4320 C   0  0
   -2.1010    6.2948   -0.8335 C   0  0
    1.9514    0.1836    0.8896 C   0  0  1  0  0  0
    0.8918    0.6285   -0.1205 C   0  0  1  0  0  0
    1.5562    0.6052    2.3034 C   0  0  2  0  0  0
    0.5380    2.1106    0.0630 C   0  0  1  0  0  0
    1.1766    2.0855    2.3663 C   0  0  2  0  0  0
   -2.0870   10.3346    0.5833 C   0  0
    2.0291    4.2445    2.7304 C   0  0
    3.2818   -1.6918    1.3779 C   0  0
    2.1866    0.2676    4.5418 C   0  0
   -0.6270    2.5360   -0.8266 C   0  0
   -3.3740    4.0635   -0.9939 O   0  0
   -1.7284    4.6701   -2.8180 O   0  0
    0.1510    2.3791    1.4155 O   0  0
    1.4072    0.4010   -1.4301 O   0  0
    2.0502   -1.2415    0.8372 O   0  0
    2.6319    0.3331    3.1946 O   0  0
    2.3050    2.9468    2.2268 O   0  0
   -0.8964    3.9056   -0.5907 O   0  0
   -2.1085    4.6295   -1.4185 S   0  0
    4.2786   -6.6584   -0.4234 H   0  0
    6.3895   -0.7633    7.7320 H   0  0
    3.0065   -6.3347    1.6818 H   0  0
    5.0908   -4.6898   -1.6971 H   0  0
    5.0686   -2.6340    6.7776 H   0  0
    5.7704    1.5831    7.2141 H   0  0
    2.5448   -4.0526    2.5146 H   0  0
    4.6344   -2.4038   -0.8728 H   0  0
    3.1349   -2.1655    5.3093 H   0  0
    3.8386    2.0621    5.7471 H   0  0
   -0.7047    9.3147   -1.5204 H   0  0
   -3.4800    8.2333    1.5921 H   0  0
   -0.7119    6.9902   -2.3357 H   0  0
   -3.4885    5.9085    0.7779 H   0  0
    2.9381    0.5738    0.6187 H   0  0
    0.0000    0.0003    0.0011 H   0  0
    0.7036   -0.0060    2.6232 H   0  0
    1.3968    2.7418   -0.2005 H   0  0
    0.7465    2.2944    3.3737 H   0  0
   -2.8720   10.9170    0.0856 H   0  0
   -2.2566   10.3771    1.6671 H   0  0
   -1.1206   10.8199    0.3939 H   0  0
    2.9110    4.8783    2.6092 H   0  0
    1.7588    4.1763    3.7872 H   0  0
    1.1951    4.6734    2.1700 H   0  0
    3.2187   -1.6767    2.4713 H   0  0
    4.0791   -1.0035    1.0774 H   0  0
    1.4266   -0.5163    4.6290 H   0  0
    1.7194    1.2207    4.8124 H   0  0
   -1.5120    1.9475   -0.5858 H   0  0
   -0.3647    2.3950   -1.8748 H   0  0
    2.2156    0.9314   -1.5045 H   0  0
  1  3  1  0
  1  4  2  0
  2  5  1  0
  2  6  2  0
  3  7  2  0
  4  8  1  0
  5  9  2  0
  6 10  1  0
  7 16  1  0
  8 16  2  0
  9 17  1  0
 10 17  2  0
 11 13  1  0
 11 15  2  0
 12 14  2  0
 12 15  1  0
 13 18  2  0
 14 18  1  0
 15 24  1  0
 16 26  1  0
 17 27  1  0
 18 37  1  0
 19 20  1  0
 19 21  1  0
 19 33  1  0
 20 22  1  0
 20 32  1  0
 21 23  1  0
 21 34  1  0
 22 28  1  0
 22 31  1  0
 23 31  1  0
 23 35  1  0
 25 35  1  0
 26 33  1  0
 27 34  1  0
 28 36  1  0
 29 37  2  0
 30 37  2  0
 36 37  1  0
  1 38  1  0
  2 39  1  0
  3 40  1  0
  4 41  1  0
  5 42  1  0
  6 43  1  0
  7 44  1  0
  8 45  1  0
  9 46  1  0
 10 47  1  0
 11 48  1  0
 12 49  1  0
 13 50  1  0
 14 51  1  0
 19 52  1  0
 20 53  1  0
 21 54  1  0
 22 55  1  0
 23 56  1  0
 24 57  1  0
 24 58  1  0
 24 59  1  0
 25 60  1  0
 25 61  1  0
 25 62  1  0
 26 63  1  0
 26 64  1  0
 27 65  1  0
 27 66  1  0
 28 67  1  0
 28 68  1  0
 32 69  1  0
M  END
> <Name>
BR020321

$$$$
BR020322
  SciTegic05062102053D

 54 56  0  0  1  0            999 V2000
    4.0763   -5.6551   -0.0601 C   0  0
    5.5411   -0.5551    7.0867 C   0  0
    3.3613   -5.4732    1.1236 C   0  0
    4.5331   -4.5485   -0.7761 C   0  0
    4.7984   -1.6069    6.5503 C   0  0
    5.1930    0.7640    6.7958 C   0  0
    3.1029   -4.1847    1.5914 C   0  0
    4.2747   -3.2601   -0.3083 C   0  0
    3.7077   -1.3396    5.7229 C   0  0
    4.1023    1.0312    5.9684 C   0  0
    3.5596   -3.0781    0.8754 C   0  0
    3.3596   -0.0205    5.4320 C   0  0
    1.9514    0.1836    0.8896 C   0  0  1  0  0  0
    0.8918    0.6285   -0.1205 C   0  0  1  0  0  0
    1.5562    0.6052    2.3034 C   0  0  2  0  0  0
    0.5380    2.1106    0.0630 C   0  0  1  0  0  0
    1.1766    2.0855    2.3663 C   0  0  2  0  0  0
    2.0291    4.2445    2.7304 C   0  0
    3.2818   -1.6918    1.3779 C   0  0
    2.1866    0.2676    4.5418 C   0  0
   -0.6270    2.5360   -0.8266 C   0  0
   -3.7866    2.1900   -1.7149 N   0  5
   -1.7961    1.7364   -0.4777 N   0  0
   -2.8346    1.9745   -1.1246 N   0  3
    0.1510    2.3791    1.4155 O   0  0
    1.4072    0.4010   -1.4301 O   0  0
    2.0502   -1.2415    0.8372 O   0  0
    2.6319    0.3331    3.1946 O   0  0
    2.3050    2.9468    2.2268 O   0  0
    4.2786   -6.6584   -0.4234 H   0  0
    6.3895   -0.7633    7.7320 H   0  0
    3.0065   -6.3347    1.6818 H   0  0
    5.0908   -4.6898   -1.6971 H   0  0
    5.0686   -2.6340    6.7776 H   0  0
    5.7704    1.5831    7.2141 H   0  0
    2.5448   -4.0526    2.5146 H   0  0
    4.6344   -2.4038   -0.8728 H   0  0
    3.1349   -2.1655    5.3093 H   0  0
    3.8386    2.0621    5.7471 H   0  0
    2.9381    0.5738    0.6187 H   0  0
    0.0000    0.0003    0.0011 H   0  0
    0.7036   -0.0060    2.6232 H   0  0
    1.3968    2.7418   -0.2005 H   0  0
    0.7465    2.2944    3.3737 H   0  0
    2.9110    4.8783    2.6092 H   0  0
    1.7588    4.1763    3.7872 H   0  0
    1.1951    4.6734    2.1700 H   0  0
    3.2187   -1.6767    2.4713 H   0  0
    4.0791   -1.0035    1.0774 H   0  0
    1.4266   -0.5163    4.6290 H   0  0
    1.7194    1.2207    4.8124 H   0  0
   -0.3675    2.3783   -1.8738 H   0  0
   -0.8410    3.5941   -0.6726 H   0  0
    2.2156    0.9314   -1.5045 H   0  0
  1  3  1  0
  1  4  2  0
  2  5  1  0
  2  6  2  0
  3  7  2  0
  4  8  1  0
  5  9  2  0
  6 10  1  0
  7 11  1  0
  8 11  2  0
  9 12  1  0
 10 12  2  0
 11 19  1  0
 12 20  1  0
 13 14  1  0
 13 15  1  0
 13 27  1  0
 14 16  1  0
 14 26  1  0
 15 17  1  0
 15 28  1  0
 16 21  1  0
 16 25  1  0
 17 25  1  0
 17 29  1  0
 18 29  1  0
 19 27  1  0
 20 28  1  0
 21 23  1  0
 22 24  2  0
 23 24  2  0
  1 30  1  0
  2 31  1  0
  3 32  1  0
  4 33  1  0
  5 34  1  0
  6 35  1  0
  7 36  1  0
  8 37  1  0
  9 38  1  0
 10 39  1  0
 13 40  1  0
 14 41  1  0
 15 42  1  0
 16 43  1  0
 17 44  1  0
 18 45  1  0
 18 46  1  0
 18 47  1  0
 19 48  1  0
 19 49  1  0
 20 50  1  0
 20 51  1  0
 21 52  1  0
 21 53  1  0
 26 54  1  0
M  CHG  2  22  -1  24   1
M  END
> <Name>
BR020322

$$$$
BR020323
  SciTegic05062102053D

 66 69  0  0  1  0            999 V2000
    4.0763   -5.6551   -0.0601 C   0  0
    5.5411   -0.5551    7.0867 C   0  0
   -5.7773    0.0823   -0.2625 C   0  0
    3.3613   -5.4732    1.1236 C   0  0
    4.5331   -4.5485   -0.7761 C   0  0
    4.7984   -1.6069    6.5503 C   0  0
    5.1930    0.7640    6.7958 C   0  0
   -6.0174   -0.5307    0.9671 C   0  0
   -4.6947    0.9495   -0.4100 C   0  0
    3.1029   -4.1847    1.5914 C   0  0
    4.2747   -3.2601   -0.3083 C   0  0
    3.7077   -1.3396    5.7229 C   0  0
    4.1023    1.0312    5.9684 C   0  0
   -5.1750   -0.2765    2.0494 C   0  0
   -3.8522    1.2036    0.6722 C   0  0
    3.5596   -3.0781    0.8754 C   0  0
    3.3596   -0.0205    5.4320 C   0  0
   -4.0924    0.5906    1.9020 C   0  0
   -2.7179    2.1364    0.4481 C   0  0
    1.9514    0.1836    0.8896 C   0  0  1  0  0  0
    0.8918    0.6285   -0.1205 C   0  0  1  0  0  0
    1.5562    0.6052    2.3034 C   0  0  2  0  0  0
    0.5380    2.1106    0.0630 C   0  0  1  0  0  0
    1.1766    2.0855    2.3663 C   0  0  2  0  0  0
    2.0291    4.2445    2.7304 C   0  0
    3.2818   -1.6918    1.3779 C   0  0
    2.1866    0.2676    4.5418 C   0  0
   -0.6270    2.5360   -0.8266 C   0  0
   -1.7801    1.7593   -0.5164 N   0  0
   -2.6440    3.1632    1.1179 O   0  0
    0.1510    2.3791    1.4155 O   0  0
    1.4072    0.4010   -1.4301 O   0  0
    2.0502   -1.2415    0.8372 O   0  0
    2.6319    0.3331    3.1946 O   0  0
    2.3050    2.9468    2.2268 O   0  0
   -2.8711    0.9250    3.5695 I   0  0
    4.2786   -6.6584   -0.4234 H   0  0
    6.3895   -0.7633    7.7320 H   0  0
   -6.4337   -0.1157   -1.1045 H   0  0
    3.0065   -6.3347    1.6818 H   0  0
    5.0908   -4.6898   -1.6971 H   0  0
    5.0686   -2.6340    6.7776 H   0  0
    5.7704    1.5831    7.2141 H   0  0
   -6.8601   -1.2061    1.0812 H   0  0
   -4.5199    1.4198   -1.3744 H   0  0
    2.5448   -4.0526    2.5146 H   0  0
    4.6344   -2.4038   -0.8728 H   0  0
    3.1349   -2.1655    5.3093 H   0  0
    3.8386    2.0621    5.7471 H   0  0
   -5.3835   -0.7666    2.9973 H   0  0
    2.9381    0.5738    0.6187 H   0  0
    0.0000    0.0003    0.0011 H   0  0
    0.7036   -0.0060    2.6232 H   0  0
    1.3968    2.7418   -0.2005 H   0  0
    0.7465    2.2944    3.3737 H   0  0
    2.9110    4.8783    2.6092 H   0  0
    1.7588    4.1763    3.7872 H   0  0
    1.1951    4.6734    2.1700 H   0  0
    3.2187   -1.6767    2.4713 H   0  0
    4.0791   -1.0035    1.0774 H   0  0
    1.4266   -0.5163    4.6290 H   0  0
    1.7194    1.2207    4.8124 H   0  0
   -0.3527    2.3730   -1.8607 H   0  0
   -0.8417    3.5816   -0.6501 H   0  0
   -1.8909    0.8533   -0.9816 H   0  0
    2.2156    0.9314   -1.5045 H   0  0
  1  4  1  0
  1  5  2  0
  2  6  1  0
  2  7  2  0
  3  8  2  0
  3  9  1  0
  4 10  2  0
  5 11  1  0
  6 12  2  0
  7 13  1  0
  8 14  1  0
  9 15  2  0
 10 16  1  0
 11 16  2  0
 12 17  1  0
 13 17  2  0
 14 18  2  0
 15 18  1  0
 15 19  1  0
 16 26  1  0
 17 27  1  0
 18 36  1  0
 19 29  1  0
 19 30  2  0
 20 21  1  0
 20 22  1  0
 20 33  1  0
 21 23  1  0
 21 32  1  0
 22 24  1  0
 22 34  1  0
 23 28  1  0
 23 31  1  0
 24 31  1  0
 24 35  1  0
 25 35  1  0
 26 33  1  0
 27 34  1  0
 28 29  1  0
  1 37  1  0
  2 38  1  0
  3 39  1  0
  4 40  1  0
  5 41  1  0
  6 42  1  0
  7 43  1  0
  8 44  1  0
  9 45  1  0
 10 46  1  0
 11 47  1  0
 12 48  1  0
 13 49  1  0
 14 50  1  0
 20 51  1  0
 21 52  1  0
 22 53  1  0
 23 54  1  0
 24 55  1  0
 25 56  1  0
 25 57  1  0
 25 58  1  0
 26 59  1  0
 26 60  1  0
 27 61  1  0
 27 62  1  0
 28 63  1  0
 28 64  1  0
 29 65  1  0
 32 66  1  0
M  END
> <Name>
BR020323

$$$$
BR020324
  SciTegic05062102053D

 70 73  0  0  1  0            999 V2000
    3.2981   -2.4951   -7.9436 C   0  0
    4.0763   -5.6551   -0.0601 C   0  0
    5.5411   -0.5551    7.0867 C   0  0
    3.7718   -1.4742   -7.1197 C   0  0
    2.3042   -3.3587   -7.4828 C   0  0
    3.3613   -5.4732    1.1236 C   0  0
    4.5331   -4.5485   -0.7761 C   0  0
    4.7984   -1.6069    6.5503 C   0  0
    5.1930    0.7640    6.7958 C   0  0
    3.2518   -1.3168   -5.8350 C   0  0
    1.7842   -3.2013   -6.1981 C   0  0
    3.1029   -4.1847    1.5914 C   0  0
    4.2747   -3.2601   -0.3083 C   0  0
    3.7077   -1.3396    5.7229 C   0  0
    4.1023    1.0312    5.9684 C   0  0
    2.2580   -2.1804   -5.3742 C   0  0
    3.5596   -3.0781    0.8754 C   0  0
    3.3596   -0.0205    5.4320 C   0  0
    1.7083   -2.0146   -4.0171 C   0  0
    1.7894   -0.8878   -3.2953 C   0  0
    1.1864   -0.8421   -1.9439 C   0  0
    1.9514    0.1836    0.8896 C   0  0  1  0  0  0
    0.8918    0.6285   -0.1205 C   0  0  1  0  0  0
    1.5562    0.6052    2.3034 C   0  0  2  0  0  0
    0.5380    2.1106    0.0630 C   0  0  1  0  0  0
    1.1766    2.0855    2.3663 C   0  0  2  0  0  0
    2.0291    4.2445    2.7304 C   0  0
    3.2818   -1.6918    1.3779 C   0  0
    2.1866    0.2676    4.5418 C   0  0
   -0.6270    2.5360   -0.8266 C   0  0
   -3.7866    2.1900   -1.7149 N   0  5
   -1.7961    1.7364   -0.4777 N   0  0
   -2.8346    1.9745   -1.1246 N   0  3
    0.5995   -1.7633   -1.3985 O   0  0
    0.1510    2.3791    1.4155 O   0  0
    1.4072    0.4010   -1.4301 O   0  0
    2.0502   -1.2415    0.8372 O   0  0
    2.6319    0.3331    3.1946 O   0  0
    2.3050    2.9468    2.2268 O   0  0
    3.7020   -2.6169   -8.9443 H   0  0
    4.2786   -6.6584   -0.4234 H   0  0
    6.3895   -0.7633    7.7320 H   0  0
    4.5449   -0.8009   -7.4786 H   0  0
    1.9344   -4.1529   -8.1247 H   0  0
    3.0065   -6.3347    1.6818 H   0  0
    5.0908   -4.6898   -1.6971 H   0  0
    5.0686   -2.6340    6.7776 H   0  0
    5.7704    1.5831    7.2141 H   0  0
    3.6313   -0.5163   -5.2043 H   0  0
    1.0098   -3.8825   -5.8534 H   0  0
    2.5448   -4.0526    2.5146 H   0  0
    4.6344   -2.4038   -0.8728 H   0  0
    3.1349   -2.1655    5.3093 H   0  0
    3.8386    2.0621    5.7471 H   0  0
    1.1916   -2.8841   -3.6169 H   0  0
    2.2746    0.0089   -3.6649 H   0  0
    2.9381    0.5738    0.6187 H   0  0
    0.0000    0.0003    0.0011 H   0  0
    0.7036   -0.0060    2.6232 H   0  0
    1.3968    2.7418   -0.2005 H   0  0
    0.7465    2.2944    3.3737 H   0  0
    2.9110    4.8783    2.6092 H   0  0
    1.7588    4.1763    3.7872 H   0  0
    1.1951    4.6734    2.1700 H   0  0
    3.2187   -1.6767    2.4713 H   0  0
    4.0791   -1.0035    1.0774 H   0  0
    1.4266   -0.5163    4.6290 H   0  0
    1.7194    1.2207    4.8124 H   0  0
   -0.3675    2.3783   -1.8738 H   0  0
   -0.8410    3.5941   -0.6726 H   0  0
  1  4  2  0
  1  5  1  0
  2  6  1  0
  2  7  2  0
  3  8  1  0
  3  9  2  0
  4 10  1  0
  5 11  2  0
  6 12  2  0
  7 13  1  0
  8 14  2  0
  9 15  1  0
 10 16  2  0
 11 16  1  0
 12 17  1  0
 13 17  2  0
 14 18  1  0
 15 18  2  0
 16 19  1  0
 17 28  1  0
 18 29  1  0
 19 20  2  0
 20 21  1  0
 21 34  2  0
 21 36  1  0
 22 23  1  0
 22 24  1  0
 22 37  1  0
 23 25  1  0
 23 36  1  0
 24 26  1  0
 24 38  1  0
 25 30  1  0
 25 35  1  0
 26 35  1  0
 26 39  1  0
 27 39  1  0
 28 37  1  0
 29 38  1  0
 30 32  1  0
 31 33  2  0
 32 33  2  0
  1 40  1  0
  2 41  1  0
  3 42  1  0
  4 43  1  0
  5 44  1  0
  6 45  1  0
  7 46  1  0
  8 47  1  0
  9 48  1  0
 10 49  1  0
 11 50  1  0
 12 51  1  0
 13 52  1  0
 14 53  1  0
 15 54  1  0
 19 55  1  0
 20 56  1  0
 22 57  1  0
 23 58  1  0
 24 59  1  0
 25 60  1  0
 26 61  1  0
 27 62  1  0
 27 63  1  0
 27 64  1  0
 28 65  1  0
 28 66  1  0
 29 67  1  0
 29 68  1  0
 30 69  1  0
 30 70  1  0
M  CHG  2  31  -1  33   1
M  END
> <Name>
BR020324

$$$$
BR020325
  SciTegic05062102053D

 82 86  0  0  1  0            999 V2000
    3.2981   -2.4951   -7.9436 C   0  0
    4.0763   -5.6551   -0.0601 C   0  0
    5.5411   -0.5551    7.0867 C   0  0
    3.7718   -1.4742   -7.1197 C   0  0
    2.3042   -3.3587   -7.4828 C   0  0
   -0.3147    2.2780   -6.5250 C   0  0
    3.3613   -5.4732    1.1236 C   0  0
    4.5331   -4.5485   -0.7761 C   0  0
    4.7984   -1.6069    6.5503 C   0  0
    5.1930    0.7640    6.7958 C   0  0
    0.9667    2.2864   -7.0760 C   0  0
    3.2518   -1.3168   -5.8350 C   0  0
    1.7842   -3.2013   -6.1981 C   0  0
   -0.5001    2.6186   -5.1851 C   0  0
    3.1029   -4.1847    1.5914 C   0  0
    4.2747   -3.2601   -0.3083 C   0  0
    3.7077   -1.3396    5.7229 C   0  0
    4.1023    1.0312    5.9684 C   0  0
    2.0628    2.6352   -6.2870 C   0  0
    2.2580   -2.1804   -5.3742 C   0  0
    0.5961    2.9674   -4.3961 C   0  0
    3.5596   -3.0781    0.8754 C   0  0
    3.3596   -0.0205    5.4320 C   0  0
    1.8775    2.9757   -4.9470 C   0  0
    1.7083   -2.0146   -4.0171 C   0  0
    1.7894   -0.8878   -3.2953 C   0  0
    0.3297    3.3194   -2.9776 C   0  0
    1.1864   -0.8421   -1.9439 C   0  0
    1.9514    0.1836    0.8896 C   0  0  1  0  0  0
    0.8918    0.6285   -0.1205 C   0  0  1  0  0  0
    1.5562    0.6052    2.3034 C   0  0  2  0  0  0
    0.5380    2.1106    0.0630 C   0  0  1  0  0  0
    1.1766    2.0855    2.3663 C   0  0  2  0  0  0
    2.0291    4.2445    2.7304 C   0  0
    3.2818   -1.6918    1.3779 C   0  0
    2.1866    0.2676    4.5418 C   0  0
   -0.6270    2.5360   -0.8266 C   0  0
   -0.2862    2.3392   -2.1955 N   0  0
    0.6360    4.4364   -2.5689 O   0  0
    0.5995   -1.7633   -1.3985 O   0  0
    0.1510    2.3791    1.4155 O   0  0
    1.4072    0.4010   -1.4301 O   0  0
    2.0502   -1.2415    0.8372 O   0  0
    2.6319    0.3331    3.1946 O   0  0
    2.3050    2.9468    2.2268 O   0  0
    3.5686    3.4878   -3.8237 I   0  0
    3.7020   -2.6169   -8.9443 H   0  0
    4.2786   -6.6584   -0.4234 H   0  0
    6.3895   -0.7633    7.7320 H   0  0
    4.5449   -0.8009   -7.4786 H   0  0
    1.9344   -4.1529   -8.1247 H   0  0
   -1.1675    2.0061   -7.1397 H   0  0
    3.0065   -6.3347    1.6818 H   0  0
    5.0908   -4.6898   -1.6971 H   0  0
    5.0686   -2.6340    6.7776 H   0  0
    5.7704    1.5831    7.2141 H   0  0
    1.1103    2.0217   -8.1194 H   0  0
    3.6313   -0.5163   -5.2043 H   0  0
    1.0098   -3.8825   -5.8534 H   0  0
   -1.5046    2.6078   -4.7696 H   0  0
    2.5448   -4.0526    2.5146 H   0  0
    4.6344   -2.4038   -0.8728 H   0  0
    3.1349   -2.1655    5.3093 H   0  0
    3.8386    2.0621    5.7471 H   0  0
    3.0512    2.6339   -6.7398 H   0  0
    1.1916   -2.8841   -3.6169 H   0  0
    2.2746    0.0089   -3.6649 H   0  0
    2.9381    0.5738    0.6187 H   0  0
    0.0000    0.0003    0.0011 H   0  0
    0.7036   -0.0060    2.6232 H   0  0
    1.3968    2.7418   -0.2005 H   0  0
    0.7465    2.2944    3.3737 H   0  0
    2.9110    4.8783    2.6092 H   0  0
    1.7588    4.1763    3.7872 H   0  0
    1.1951    4.6734    2.1700 H   0  0
    3.2187   -1.6767    2.4713 H   0  0
    4.0791   -1.0035    1.0774 H   0  0
    1.4266   -0.5163    4.6290 H   0  0
    1.7194    1.2207    4.8124 H   0  0
   -0.8306    3.5850   -0.6552 H   0  0
   -1.4936    1.9355   -0.5836 H   0  0
   -0.5622    1.4582   -2.6395 H   0  0
  1  4  2  0
  1  5  1  0
  2  7  1  0
  2  8  2  0
  3  9  1  0
  3 10  2  0
  4 12  1  0
  5 13  2  0
  6 11  2  0
  6 14  1  0
  7 15  2  0
  8 16  1  0
  9 17  2  0
 10 18  1  0
 11 19  1  0
 12 20  2  0
 13 20  1  0
 14 21  2  0
 15 22  1  0
 16 22  2  0
 17 23  1  0
 18 23  2  0
 19 24  2  0
 20 25  1  0
 21 24  1  0
 21 27  1  0
 22 35  1  0
 23 36  1  0
 24 46  1  0
 25 26  2  0
 26 28  1  0
 27 38  1  0
 27 39  2  0
 28 40  2  0
 28 42  1  0
 29 30  1  0
 29 31  1  0
 29 43  1  0
 30 32  1  0
 30 42  1  0
 31 33  1  0
 31 44  1  0
 32 37  1  0
 32 41  1  0
 33 41  1  0
 33 45  1  0
 34 45  1  0
 35 43  1  0
 36 44  1  0
 37 38  1  0
  1 47  1  0
  2 48  1  0
  3 49  1  0
  4 50  1  0
  5 51  1  0
  6 52  1  0
  7 53  1  0
  8 54  1  0
  9 55  1  0
 10 56  1  0
 11 57  1  0
 12 58  1  0
 13 59  1  0
 14 60  1  0
 15 61  1  0
 16 62  1  0
 17 63  1  0
 18 64  1  0
 19 65  1  0
 25 66  1  0
 26 67  1  0
 29 68  1  0
 30 69  1  0
 31 70  1  0
 32 71  1  0
 33 72  1  0
 34 73  1  0
 34 74  1  0
 34 75  1  0
 35 76  1  0
 35 77  1  0
 36 78  1  0
 36 79  1  0
 37 80  1  0
 37 81  1  0
 38 82  1  0
M  END
> <Name>
BR020325

$$$$
BR020326
  SciTegic05062102053D

 44 46  0  0  1  0            999 V2000
    1.9105   -0.9538   -5.5168 C   0  0
    0.7488   -1.4003   -4.8872 C   0  0
    3.0612   -0.7111   -4.7666 C   0  0
    0.7376   -1.6041   -3.5073 C   0  0
    3.0500   -0.9149   -3.3868 C   0  0
    1.8882   -1.3614   -2.7571 C   0  0
    2.2396    0.5793   -0.2837 C   0  0
    1.8766   -1.5835   -1.2501 C   0  0  1  0  0  0
    0.8857    0.4654    0.3975 C   0  0  2  0  0  0
   -0.0276   -0.3659   -0.4959 C   0  0  2  0  0  0
   -1.4094   -0.4979    0.1405 C   0  0  1  0  0  0
   -1.9401    0.8948    0.4903 C   0  0  2  0  0  0
   -0.9250    1.6991    1.3108 C   0  0  2  0  0  0
   -3.4182   -1.6780   -0.1672 C   0  0
   -3.9218    1.9657    1.1601 C   0  0
   -0.2538    2.0755    3.5313 C   0  0
    2.7694   -0.7239   -0.5213 O   0  0
    0.5567   -1.6553   -0.6814 O   0  0
    0.3355    1.7583    0.6320 O   0  0
   -2.2838   -1.1133   -0.8055 O   0  0
   -3.1637    0.7656    1.2065 O   0  0
   -0.8022    1.1385    2.6174 O   0  0
    1.9195   -0.7964   -6.5914 H   0  0
   -0.1470   -1.5904   -5.4713 H   0  0
    3.9662   -0.3645   -5.2566 H   0  0
   -0.1722   -1.9520   -3.0252 H   0  0
    3.9512   -0.7230   -2.8103 H   0  0
    2.1780    1.1414   -1.2235 H   0  0
    2.9423    1.1246    0.3557 H   0  0
    2.2970   -2.6108   -1.1149 H   0  0
    1.0416   -0.0538    1.3533 H   0  0
   -0.1531    0.1105   -1.4784 H   0  0
   -1.3817   -1.1544    1.0178 H   0  0
   -2.1624    1.4275   -0.4433 H   0  0
   -1.2935    2.7238    1.4323 H   0  0
   -4.0662   -2.1400   -0.9160 H   0  0
   -3.9625   -0.8963    0.3688 H   0  0
   -3.0848   -2.4390    0.5423 H   0  0
   -4.8518    1.8319    1.7182 H   0  0
   -4.1418    2.2188    0.1199 H   0  0
   -3.3400    2.7715    1.6139 H   0  0
   -0.1728    1.6169    4.5198 H   0  0
   -0.8963    2.9583    3.5789 H   0  0
    0.7403    2.3690    3.1858 H   0  0
  1  2  1  0
  1  3  2  0
  2  4  2  0
  3  5  1  0
  4  6  1  0
  5  6  2  0
  6  8  1  0
  7  9  1  0
  7 17  1  0
  8 17  1  0
  8 18  1  0
  9 10  1  0
  9 19  1  0
 10 11  1  0
 10 18  1  0
 11 12  1  0
 11 20  1  0
 12 13  1  0
 12 21  1  0
 13 19  1  0
 13 22  1  0
 14 20  1  0
 15 21  1  0
 16 22  1  0
  1 23  1  0
  2 24  1  0
  3 25  1  0
  4 26  1  0
  5 27  1  0
  7 28  1  0
  7 29  1  0
  8 30  1  0
  9 31  1  0
 10 32  1  0
 11 33  1  0
 12 34  1  0
 13 35  1  0
 14 36  1  0
 14 37  1  0
 14 38  1  0
 15 39  1  0
 15 40  1  0
 15 41  1  0
 16 42  1  0
 16 43  1  0
 16 44  1  0
M  END
> <Name>
BR020326

$$$$
BR020327
  SciTegic05062102053D

 44 45  0  0  1  0            999 V2000
    4.5549    0.4422   -4.7904 C   0  0
    5.0076    0.7565   -3.5091 C   0  0
    3.2034    0.1725   -5.0060 C   0  0
    4.1088    0.8010   -2.4433 C   0  0
    2.3046    0.2170   -3.9402 C   0  0
    2.7573    0.5312   -2.6588 C   0  0
    1.8007    0.5786   -1.5243 C   0  0
   -0.9994    1.7402   -0.8321 C   0  0  1  0  0  0
   -0.4755    0.3023   -0.9404 C   0  0  1  0  0  0
   -1.9231    2.0998   -1.9981 C   0  0  2  0  0  0
   -1.5582   -0.7185   -1.3312 C   0  0  1  0  0  0
   -2.9754    1.0130   -2.2282 C   0  0  2  0  0  0
   -0.8446    2.1006    1.4810 C   0  0
   -0.5326    3.5541   -3.2198 C   0  0
   -4.9977    0.6910   -3.3799 C   0  0
   -2.4388   -1.1573   -0.1629 C   0  0
    2.1318    0.8467   -0.3798 O   0  0
   -2.3508   -0.2529   -2.4310 O   0  0
    0.5414    0.2874   -1.9472 O   0  0
   -1.7221    1.9057    0.3837 O   0  0
   -1.1471    2.2741   -3.1844 O   0  0
   -3.7530    1.3723   -3.3686 O   0  0
   -3.3382   -2.8139   -0.6185 Br  0  0
    5.2547    0.4076   -5.6202 H   0  0
    6.0599    0.9663   -3.3414 H   0  0
    2.8509   -0.0720   -6.0038 H   0  0
    4.4724    1.0470   -1.4489 H   0  0
    1.2538    0.0049   -4.1199 H   0  0
   -0.1534    2.4570   -0.7793 H   0  0
    0.0027    0.0180    0.0046 H   0  0
   -2.4132    3.0486   -1.7811 H   0  0
   -1.0241   -1.6639   -1.6817 H   0  0
   -3.6386    0.9525   -1.3810 H   0  0
   -1.4274    2.2241    2.3971 H   0  0
   -0.2307    2.9874    1.3047 H   0  0
   -0.1977    1.2255    1.5787 H   0  0
    0.0515    3.6534   -4.1380 H   0  0
    0.1159    3.6722   -2.3481 H   0  0
   -1.3096    4.3220   -3.2001 H   0  0
   -5.5681    0.9872   -4.2637 H   0  0
   -5.5566    0.9363   -2.4733 H   0  0
   -4.8135   -0.3855   -3.4119 H   0  0
   -3.2055   -0.4150    0.0447 H   0  0
   -1.8399   -1.3436    0.7252 H   0  0
  1  2  1  0
  1  3  2  0
  2  4  2  0
  3  5  1  0
  4  6  1  0
  5  6  2  0
  6  7  1  0
  7 17  2  0
  7 19  1  0
  8  9  1  0
  8 10  1  0
  8 20  1  0
  9 11  1  0
  9 19  1  0
 10 12  1  0
 10 21  1  0
 11 16  1  0
 11 18  1  0
 12 18  1  0
 12 22  1  0
 13 20  1  0
 14 21  1  0
 15 22  1  0
 16 23  1  0
  1 24  1  0
  2 25  1  0
  3 26  1  0
  4 27  1  0
  5 28  1  0
  8 29  1  0
  9 30  1  0
 10 31  1  0
 11 32  1  0
 12 33  1  0
 13 34  1  0
 13 35  1  0
 13 36  1  0
 14 37  1  0
 14 38  1  0
 14 39  1  0
 15 40  1  0
 15 41  1  0
 15 42  1  0
 16 43  1  0
 16 44  1  0
M  END
> <Name>
BR020327

$$$$
BR020328
  SciTegic05062102053D

 46 47  0  0  1  0            999 V2000
    4.5549    0.4422   -4.7904 C   0  0
    5.0076    0.7565   -3.5091 C   0  0
    3.2034    0.1725   -5.0060 C   0  0
    4.1088    0.8010   -2.4433 C   0  0
    2.3046    0.2170   -3.9402 C   0  0
    2.7573    0.5312   -2.6588 C   0  0
    1.8007    0.5786   -1.5243 C   0  0
   -0.9994    1.7402   -0.8321 C   0  0  1  0  0  0
   -0.4755    0.3023   -0.9404 C   0  0  1  0  0  0
   -1.9231    2.0998   -1.9981 C   0  0  2  0  0  0
   -1.5582   -0.7185   -1.3312 C   0  0  1  0  0  0
   -2.9754    1.0130   -2.2282 C   0  0  2  0  0  0
   -0.8446    2.1006    1.4810 C   0  0
   -0.5326    3.5541   -3.2198 C   0  0
   -4.9977    0.6910   -3.3799 C   0  0
   -2.4388   -1.1573   -0.1629 C   0  0
   -4.9375   -2.9928    0.9681 N   0  5
   -3.4163   -2.1228   -0.6528 N   0  0
   -4.2099   -2.5760    0.1948 N   0  3
    2.1318    0.8467   -0.3798 O   0  0
   -2.3508   -0.2529   -2.4310 O   0  0
    0.5414    0.2874   -1.9472 O   0  0
   -1.7221    1.9057    0.3837 O   0  0
   -1.1471    2.2741   -3.1844 O   0  0
   -3.7530    1.3723   -3.3686 O   0  0
    5.2547    0.4076   -5.6202 H   0  0
    6.0599    0.9663   -3.3414 H   0  0
    2.8509   -0.0720   -6.0038 H   0  0
    4.4724    1.0470   -1.4489 H   0  0
    1.2538    0.0049   -4.1199 H   0  0
   -0.1534    2.4570   -0.7793 H   0  0
    0.0027    0.0180    0.0046 H   0  0
   -2.4132    3.0486   -1.7811 H   0  0
   -1.0241   -1.6639   -1.6817 H   0  0
   -3.6386    0.9525   -1.3810 H   0  0
   -1.4274    2.2241    2.3971 H   0  0
   -0.2307    2.9874    1.3047 H   0  0
   -0.1977    1.2255    1.5787 H   0  0
    0.0515    3.6534   -4.1380 H   0  0
    0.1159    3.6722   -2.3481 H   0  0
   -1.3096    4.3220   -3.2001 H   0  0
   -5.5681    0.9872   -4.2637 H   0  0
   -5.5566    0.9363   -2.4733 H   0  0
   -4.8135   -0.3855   -3.4119 H   0  0
   -2.9501   -0.2914    0.2585 H   0  0
   -1.8222   -1.6134    0.6123 H   0  0
  1  2  1  0
  1  3  2  0
  2  4  2  0
  3  5  1  0
  4  6  1  0
  5  6  2  0
  6  7  1  0
  7 20  2  0
  7 22  1  0
  8  9  1  0
  8 10  1  0
  8 23  1  0
  9 11  1  0
  9 22  1  0
 10 12  1  0
 10 24  1  0
 11 16  1  0
 11 21  1  0
 12 21  1  0
 12 25  1  0
 13 23  1  0
 14 24  1  0
 15 25  1  0
 16 18  1  0
 17 19  2  0
 18 19  2  0
  1 26  1  0
  2 27  1  0
  3 28  1  0
  4 29  1  0
  5 30  1  0
  8 31  1  0
  9 32  1  0
 10 33  1  0
 11 34  1  0
 12 35  1  0
 13 36  1  0
 13 37  1  0
 13 38  1  0
 14 39  1  0
 14 40  1  0
 14 41  1  0
 15 42  1  0
 15 43  1  0
 15 44  1  0
 16 45  1  0
 16 46  1  0
M  CHG  2  17  -1  19   1
M  END
> <Name>
BR020328

$$$$
BR020329
  SciTegic05062102053D

 34 34  0  0  1  0            999 V2000
    1.9514    0.1836    0.8896 C   0  0  1  0  0  0
    0.8918    0.6285   -0.1205 C   0  0  1  0  0  0
    1.5562    0.6052    2.3034 C   0  0  2  0  0  0
    0.5380    2.1106    0.0630 C   0  0  1  0  0  0
    1.1766    2.0855    2.3663 C   0  0  2  0  0  0
    3.2818   -1.6918    1.3779 C   0  0
    2.1866    0.2676    4.5418 C   0  0
    2.0291    4.2445    2.7304 C   0  0
   -0.6270    2.5360   -0.8266 C   0  0
   -3.7866    2.1900   -1.7149 N   0  5
   -1.7961    1.7364   -0.4777 N   0  0
   -2.8346    1.9745   -1.1246 N   0  3
    0.1510    2.3791    1.4155 O   0  0
    1.4072    0.4010   -1.4301 O   0  0
    2.0502   -1.2415    0.8372 O   0  0
    2.6319    0.3331    3.1946 O   0  0
    2.3050    2.9468    2.2268 O   0  0
    2.9381    0.5738    0.6187 H   0  0
    0.0000    0.0003    0.0011 H   0  0
    0.7036   -0.0060    2.6232 H   0  0
    1.3968    2.7418   -0.2005 H   0  0
    0.7465    2.2944    3.3737 H   0  0
    3.3274   -2.7823    1.3238 H   0  0
    3.3662   -1.3640    2.4170 H   0  0
    4.1025   -1.2659    0.7958 H   0  0
    3.0355    0.0579    5.1972 H   0  0
    1.4339   -0.5187    4.6399 H   0  0
    1.7451    1.2283    4.8173 H   0  0
    2.9110    4.8783    2.6092 H   0  0
    1.7588    4.1763    3.7872 H   0  0
    1.1951    4.6734    2.1700 H   0  0
   -0.3675    2.3783   -1.8738 H   0  0
   -0.8410    3.5941   -0.6726 H   0  0
    2.2156    0.9314   -1.5045 H   0  0
  1  2  1  0
  1  3  1  0
  1 15  1  0
  2  4  1  0
  2 14  1  0
  3  5  1  0
  3 16  1  0
  4  9  1  0
  4 13  1  0
  5 13  1  0
  5 17  1  0
  6 15  1  0
  7 16  1  0
  8 17  1  0
  9 11  1  0
 10 12  2  0
 11 12  2  0
  1 18  1  0
  2 19  1  0
  3 20  1  0
  4 21  1  0
  5 22  1  0
  6 23  1  0
  6 24  1  0
  6 25  1  0
  7 26  1  0
  7 27  1  0
  7 28  1  0
  8 29  1  0
  8 30  1  0
  8 31  1  0
  9 32  1  0
  9 33  1  0
 14 34  1  0
M  CHG  2  10  -1  12   1
M  END
> <Name>
BR020329

$$$$
BR020330
  SciTegic05062102053D

 50 51  0  0  1  0            999 V2000
    6.9025    0.6504   -5.6611 C   0  0
    5.5486    0.7887   -5.9666 C   0  0
    7.3107    0.5509   -4.3309 C   0  0
    4.6028    0.8275   -4.9421 C   0  0
    6.3649    0.5898   -3.3064 C   0  0
    5.0110    0.7281   -3.6119 C   0  0
    4.0124    0.7692   -2.5292 C   0  0
    2.7054    0.5170   -2.6891 C   0  0
    1.8017    0.5799   -1.5180 C   0  0
   -0.9994    1.7402   -0.8321 C   0  0  1  0  0  0
   -0.4755    0.3023   -0.9404 C   0  0  1  0  0  0
   -1.9231    2.0998   -1.9981 C   0  0  2  0  0  0
   -1.5582   -0.7185   -1.3312 C   0  0  1  0  0  0
   -2.9754    1.0130   -2.2282 C   0  0  2  0  0  0
   -0.8446    2.1006    1.4810 C   0  0
   -0.5326    3.5541   -3.2198 C   0  0
   -4.9977    0.6910   -3.3799 C   0  0
   -2.4388   -1.1573   -0.1629 C   0  0
   -4.9375   -2.9928    0.9681 N   0  5
   -3.4163   -2.1228   -0.6528 N   0  0
   -4.2099   -2.5760    0.1948 N   0  3
    2.1395    0.8487   -0.3761 O   0  0
   -2.3508   -0.2529   -2.4310 O   0  0
    0.5414    0.2874   -1.9472 O   0  0
   -1.7221    1.9057    0.3837 O   0  0
   -1.1471    2.2741   -3.1844 O   0  0
   -3.7530    1.3723   -3.3686 O   0  0
    7.6387    0.6189   -6.4588 H   0  0
    5.2304    0.8650   -7.0023 H   0  0
    8.3647    0.4421   -4.0929 H   0  0
    3.5510    0.9358   -5.1960 H   0  0
    6.6988    0.5110   -2.2745 H   0  0
    4.4069    1.0052   -1.5434 H   0  0
    2.2742    0.2550   -3.6491 H   0  0
   -0.1534    2.4570   -0.7793 H   0  0
    0.0027    0.0180    0.0046 H   0  0
   -2.4132    3.0486   -1.7811 H   0  0
   -1.0241   -1.6639   -1.6817 H   0  0
   -3.6386    0.9525   -1.3810 H   0  0
   -1.4274    2.2241    2.3971 H   0  0
   -0.2307    2.9874    1.3047 H   0  0
   -0.1977    1.2255    1.5787 H   0  0
    0.0515    3.6534   -4.1380 H   0  0
    0.1159    3.6722   -2.3481 H   0  0
   -1.3096    4.3220   -3.2001 H   0  0
   -5.5681    0.9872   -4.2637 H   0  0
   -5.5566    0.9363   -2.4733 H   0  0
   -4.8135   -0.3855   -3.4119 H   0  0
   -2.9501   -0.2914    0.2585 H   0  0
   -1.8222   -1.6134    0.6123 H   0  0
  1  2  1  0
  1  3  2  0
  2  4  2  0
  3  5  1  0
  4  6  1  0
  5  6  2  0
  6  7  1  0
  7  8  2  0
  8  9  1  0
  9 22  2  0
  9 24  1  0
 10 11  1  0
 10 12  1  0
 10 25  1  0
 11 13  1  0
 11 24  1  0
 12 14  1  0
 12 26  1  0
 13 18  1  0
 13 23  1  0
 14 23  1  0
 14 27  1  0
 15 25  1  0
 16 26  1  0
 17 27  1  0
 18 20  1  0
 19 21  2  0
 20 21  2  0
  1 28  1  0
  2 29  1  0
  3 30  1  0
  4 31  1  0
  5 32  1  0
  7 33  1  0
  8 34  1  0
 10 35  1  0
 11 36  1  0
 12 37  1  0
 13 38  1  0
 14 39  1  0
 15 40  1  0
 15 41  1  0
 15 42  1  0
 16 43  1  0
 16 44  1  0
 16 45  1  0
 17 46  1  0
 17 47  1  0
 17 48  1  0
 18 49  1  0
 18 50  1  0
M  CHG  2  19  -1  21   1
M  END
> <Name>
BR020330

$$$$
BR020331
  SciTegic05062102053D

 62 64  0  0  1  0            999 V2000
    6.9025    0.6504   -5.6611 C   0  0
    5.5486    0.7887   -5.9666 C   0  0
    7.3107    0.5509   -4.3309 C   0  0
   -0.4733   -4.4759    4.2628 C   0  0
    0.9168   -4.5658    4.1919 C   0  0
    4.6028    0.8275   -4.9421 C   0  0
    6.3649    0.5898   -3.3064 C   0  0
   -1.1987   -4.0082    3.1670 C   0  0
    1.5816   -4.1879    3.0253 C   0  0
    5.0110    0.7281   -3.6119 C   0  0
   -0.5340   -3.6303    2.0004 C   0  0
    0.8562   -3.7201    1.9295 C   0  0
    4.0124    0.7692   -2.5292 C   0  0
    2.7054    0.5170   -2.6891 C   0  0
   -1.3655   -3.1413    0.8705 C   0  0
    1.8017    0.5799   -1.5180 C   0  0
   -0.9994    1.7402   -0.8321 C   0  0  1  0  0  0
   -0.4755    0.3023   -0.9404 C   0  0  1  0  0  0
   -1.9231    2.0998   -1.9981 C   0  0  2  0  0  0
   -1.5582   -0.7185   -1.3312 C   0  0  1  0  0  0
   -2.9754    1.0130   -2.2282 C   0  0  2  0  0  0
   -0.8446    2.1006    1.4810 C   0  0
   -0.5326    3.5541   -3.2198 C   0  0
   -4.9977    0.6910   -3.3799 C   0  0
   -2.4388   -1.1573   -0.1629 C   0  0
   -1.6373   -1.7712    0.8419 N   0  0
   -1.7850   -3.9454    0.0423 O   0  0
    2.1395    0.8487   -0.3761 O   0  0
   -2.3508   -0.2529   -2.4310 O   0  0
    0.5414    0.2874   -1.9472 O   0  0
   -1.7221    1.9057    0.3837 O   0  0
   -1.1471    2.2741   -3.1844 O   0  0
   -3.7530    1.3723   -3.3686 O   0  0
    1.9209   -3.1706    0.2125 I   0  0
    7.6387    0.6189   -6.4588 H   0  0
    5.2304    0.8650   -7.0023 H   0  0
    8.3647    0.4421   -4.0929 H   0  0
   -0.9901   -4.7700    5.1713 H   0  0
    1.4811   -4.9305    5.0451 H   0  0
    3.5510    0.9358   -5.1960 H   0  0
    6.6988    0.5110   -2.2745 H   0  0
   -2.2817   -3.9439    3.2367 H   0  0
    2.6655   -4.2672    2.9952 H   0  0
    4.4069    1.0052   -1.5434 H   0  0
    2.2742    0.2550   -3.6491 H   0  0
   -0.1534    2.4570   -0.7793 H   0  0
    0.0027    0.0180    0.0046 H   0  0
   -2.4132    3.0486   -1.7811 H   0  0
   -1.0241   -1.6639   -1.6817 H   0  0
   -3.6386    0.9525   -1.3810 H   0  0
   -1.4274    2.2241    2.3971 H   0  0
   -0.2307    2.9874    1.3047 H   0  0
   -0.1977    1.2255    1.5787 H   0  0
    0.0515    3.6534   -4.1380 H   0  0
    0.1159    3.6722   -2.3481 H   0  0
   -1.3096    4.3220   -3.2001 H   0  0
   -5.5681    0.9872   -4.2637 H   0  0
   -5.5566    0.9363   -2.4733 H   0  0
   -4.8135   -0.3855   -3.4119 H   0  0
   -3.1676   -1.8706   -0.5253 H   0  0
   -2.9311   -0.2885    0.2533 H   0  0
   -1.2965   -1.1866    1.6111 H   0  0
  1  2  1  0
  1  3  2  0
  2  6  2  0
  3  7  1  0
  4  5  2  0
  4  8  1  0
  5  9  1  0
  6 10  1  0
  7 10  2  0
  8 11  2  0
  9 12  2  0
 10 13  1  0
 11 12  1  0
 11 15  1  0
 12 34  1  0
 13 14  2  0
 14 16  1  0
 15 26  1  0
 15 27  2  0
 16 28  2  0
 16 30  1  0
 17 18  1  0
 17 19  1  0
 17 31  1  0
 18 20  1  0
 18 30  1  0
 19 21  1  0
 19 32  1  0
 20 25  1  0
 20 29  1  0
 21 29  1  0
 21 33  1  0
 22 31  1  0
 23 32  1  0
 24 33  1  0
 25 26  1  0
  1 35  1  0
  2 36  1  0
  3 37  1  0
  4 38  1  0
  5 39  1  0
  6 40  1  0
  7 41  1  0
  8 42  1  0
  9 43  1  0
 13 44  1  0
 14 45  1  0
 17 46  1  0
 18 47  1  0
 19 48  1  0
 20 49  1  0
 21 50  1  0
 22 51  1  0
 22 52  1  0
 22 53  1  0
 23 54  1  0
 23 55  1  0
 23 56  1  0
 24 57  1  0
 24 58  1  0
 24 59  1  0
 25 60  1  0
 25 61  1  0
 26 62  1  0
M  END
> <Name>
BR020331

$$$$
BR020332
  SciTegic05062102053D

 46 47  0  0  1  0            999 V2000
   -5.7773    0.0823   -0.2625 C   0  0
   -6.0174   -0.5307    0.9671 C   0  0
   -4.6947    0.9495   -0.4100 C   0  0
   -5.1750   -0.2765    2.0494 C   0  0
   -3.8522    1.2036    0.6722 C   0  0
   -4.0924    0.5906    1.9020 C   0  0
   -2.7179    2.1364    0.4481 C   0  0
    1.9514    0.1836    0.8896 C   0  0  1  0  0  0
    0.8918    0.6285   -0.1205 C   0  0  1  0  0  0
    1.5562    0.6052    2.3034 C   0  0  2  0  0  0
    0.5380    2.1106    0.0630 C   0  0  1  0  0  0
    1.1766    2.0855    2.3663 C   0  0  2  0  0  0
    3.2818   -1.6918    1.3779 C   0  0
    2.1866    0.2676    4.5418 C   0  0
    2.0291    4.2445    2.7304 C   0  0
   -0.6270    2.5360   -0.8266 C   0  0
   -1.7801    1.7593   -0.5164 N   0  0
   -2.6440    3.1632    1.1179 O   0  0
    0.1510    2.3791    1.4155 O   0  0
    1.4072    0.4010   -1.4301 O   0  0
    2.0502   -1.2415    0.8372 O   0  0
    2.6319    0.3331    3.1946 O   0  0
    2.3050    2.9468    2.2268 O   0  0
   -2.8711    0.9250    3.5695 I   0  0
   -6.4337   -0.1157   -1.1045 H   0  0
   -6.8601   -1.2061    1.0812 H   0  0
   -4.5199    1.4198   -1.3744 H   0  0
   -5.3835   -0.7666    2.9973 H   0  0
    2.9381    0.5738    0.6187 H   0  0
    0.0000    0.0003    0.0011 H   0  0
    0.7036   -0.0060    2.6232 H   0  0
    1.3968    2.7418   -0.2005 H   0  0
    0.7465    2.2944    3.3737 H   0  0
    3.3274   -2.7823    1.3238 H   0  0
    3.3662   -1.3640    2.4170 H   0  0
    4.1025   -1.2659    0.7958 H   0  0
    3.0355    0.0579    5.1972 H   0  0
    1.4339   -0.5187    4.6399 H   0  0
    1.7451    1.2283    4.8173 H   0  0
    2.9110    4.8783    2.6092 H   0  0
    1.7588    4.1763    3.7872 H   0  0
    1.1951    4.6734    2.1700 H   0  0
   -0.3527    2.3730   -1.8607 H   0  0
   -0.8417    3.5816   -0.6501 H   0  0
   -1.8909    0.8533   -0.9816 H   0  0
    2.2156    0.9314   -1.5045 H   0  0
  1  2  2  0
  1  3  1  0
  2  4  1  0
  3  5  2  0
  4  6  2  0
  5  6  1  0
  5  7  1  0
  6 24  1  0
  7 17  1  0
  7 18  2  0
  8  9  1  0
  8 10  1  0
  8 21  1  0
  9 11  1  0
  9 20  1  0
 10 12  1  0
 10 22  1  0
 11 16  1  0
 11 19  1  0
 12 19  1  0
 12 23  1  0
 13 21  1  0
 14 22  1  0
 15 23  1  0
 16 17  1  0
  1 25  1  0
  2 26  1  0
  3 27  1  0
  4 28  1  0
  8 29  1  0
  9 30  1  0
 10 31  1  0
 11 32  1  0
 12 33  1  0
 13 34  1  0
 13 35  1  0
 13 36  1  0
 14 37  1  0
 14 38  1  0
 14 39  1  0
 15 40  1  0
 15 41  1  0
 15 42  1  0
 16 43  1  0
 16 44  1  0
 17 45  1  0
 20 46  1  0
M  END
> <Name>
BR020332

$$$$
BR020333
  SciTegic05062102053D

 68 71  0  0  1  0            999 V2000
    3.2981   -2.4951   -7.9436 C   0  0
    4.0763   -5.6551   -0.0601 C   0  0
    5.5411   -0.5551    7.0867 C   0  0
    3.7718   -1.4742   -7.1197 C   0  0
    2.3042   -3.3587   -7.4828 C   0  0
    3.3613   -5.4732    1.1236 C   0  0
    4.5331   -4.5485   -0.7761 C   0  0
    4.7984   -1.6069    6.5503 C   0  0
    5.1930    0.7640    6.7958 C   0  0
    3.2518   -1.3168   -5.8350 C   0  0
    1.7842   -3.2013   -6.1981 C   0  0
    3.1029   -4.1847    1.5914 C   0  0
    4.2747   -3.2601   -0.3083 C   0  0
    3.7077   -1.3396    5.7229 C   0  0
    4.1023    1.0312    5.9684 C   0  0
    2.2580   -2.1804   -5.3742 C   0  0
    3.5596   -3.0781    0.8754 C   0  0
    3.3596   -0.0205    5.4320 C   0  0
    1.7083   -2.0146   -4.0171 C   0  0
    1.7894   -0.8878   -3.2953 C   0  0
    1.1864   -0.8421   -1.9439 C   0  0
    1.9514    0.1836    0.8896 C   0  0  1  0  0  0
    0.8918    0.6285   -0.1205 C   0  0  1  0  0  0
    1.5562    0.6052    2.3034 C   0  0  2  0  0  0
    0.5380    2.1106    0.0630 C   0  0  1  0  0  0
    1.1766    2.0855    2.3663 C   0  0  2  0  0  0
    2.0291    4.2445    2.7304 C   0  0
    3.2818   -1.6918    1.3779 C   0  0
    2.1866    0.2676    4.5418 C   0  0
   -0.6270    2.5360   -0.8266 C   0  0
    0.5995   -1.7633   -1.3985 O   0  0
    0.1510    2.3791    1.4155 O   0  0
    1.4072    0.4010   -1.4301 O   0  0
    2.0502   -1.2415    0.8372 O   0  0
    2.6319    0.3331    3.1946 O   0  0
    2.3050    2.9468    2.2268 O   0  0
   -0.6242    4.6457   -1.1122 I   0  0
    3.7020   -2.6169   -8.9443 H   0  0
    4.2786   -6.6584   -0.4234 H   0  0
    6.3895   -0.7633    7.7320 H   0  0
    4.5449   -0.8009   -7.4786 H   0  0
    1.9344   -4.1529   -8.1247 H   0  0
    3.0065   -6.3347    1.6818 H   0  0
    5.0908   -4.6898   -1.6971 H   0  0
    5.0686   -2.6340    6.7776 H   0  0
    5.7704    1.5831    7.2141 H   0  0
    3.6313   -0.5163   -5.2043 H   0  0
    1.0098   -3.8825   -5.8534 H   0  0
    2.5448   -4.0526    2.5146 H   0  0
    4.6344   -2.4038   -0.8728 H   0  0
    3.1349   -2.1655    5.3093 H   0  0
    3.8386    2.0621    5.7471 H   0  0
    1.1916   -2.8841   -3.6169 H   0  0
    2.2746    0.0089   -3.6649 H   0  0
    2.9381    0.5738    0.6187 H   0  0
    0.0000    0.0003    0.0011 H   0  0
    0.7036   -0.0060    2.6232 H   0  0
    1.3968    2.7418   -0.2005 H   0  0
    0.7465    2.2944    3.3737 H   0  0
    2.9110    4.8783    2.6092 H   0  0
    1.7588    4.1763    3.7872 H   0  0
    1.1951    4.6734    2.1700 H   0  0
    3.2187   -1.6767    2.4713 H   0  0
    4.0791   -1.0035    1.0774 H   0  0
    1.4266   -0.5163    4.6290 H   0  0
    1.7194    1.2207    4.8124 H   0  0
   -1.5654    2.2219   -0.3630 H   0  0
   -0.5472    2.0269   -1.7902 H   0  0
  1  4  1  0
  1  5  2  0
  2  6  1  0
  2  7  2  0
  3  8  1  0
  3  9  2  0
  4 10  2  0
  5 11  1  0
  6 12  2  0
  7 13  1  0
  8 14  2  0
  9 15  1  0
 10 16  1  0
 11 16  2  0
 12 17  1  0
 13 17  2  0
 14 18  1  0
 15 18  2  0
 16 19  1  0
 17 28  1  0
 18 29  1  0
 19 20  2  0
 20 21  1  0
 21 31  2  0
 21 33  1  0
 22 23  1  0
 22 24  1  0
 22 34  1  0
 23 25  1  0
 23 33  1  0
 24 26  1  0
 24 35  1  0
 25 30  1  0
 25 32  1  0
 26 32  1  0
 26 36  1  0
 27 36  1  0
 28 34  1  0
 29 35  1  0
 30 37  1  0
  1 38  1  0
  2 39  1  0
  3 40  1  0
  4 41  1  0
  5 42  1  0
  6 43  1  0
  7 44  1  0
  8 45  1  0
  9 46  1  0
 10 47  1  0
 11 48  1  0
 12 49  1  0
 13 50  1  0
 14 51  1  0
 15 52  1  0
 19 53  1  0
 20 54  1  0
 22 55  1  0
 23 56  1  0
 24 57  1  0
 25 58  1  0
 26 59  1  0
 27 60  1  0
 27 61  1  0
 27 62  1  0
 28 63  1  0
 28 64  1  0
 29 65  1  0
 29 66  1  0
 30 67  1  0
 30 68  1  0
M  END
> <Name>
BR020333

$$$$
BR020334
  SciTegic05062102053D

 61 63  0  0  1  0            999 V2000
    4.0763   -5.6551   -0.0601 C   0  0
    5.5411   -0.5551    7.0867 C   0  0
    3.3613   -5.4732    1.1236 C   0  0
    4.5331   -4.5485   -0.7761 C   0  0
    4.7984   -1.6069    6.5503 C   0  0
    5.1930    0.7640    6.7958 C   0  0
    3.1029   -4.1847    1.5914 C   0  0
    4.2747   -3.2601   -0.3083 C   0  0
    3.7077   -1.3396    5.7229 C   0  0
    4.1023    1.0312    5.9684 C   0  0
    3.5596   -3.0781    0.8754 C   0  0
    3.3596   -0.0205    5.4320 C   0  0
    1.7881   -0.8875   -3.2940 C   0  0
    1.7114   -2.0085   -4.0230 C   0  0
    1.1865   -0.8420   -1.9439 C   0  0
    1.9514    0.1836    0.8896 C   0  0  1  0  0  0
    0.8918    0.6285   -0.1205 C   0  0  1  0  0  0
    1.5562    0.6052    2.3034 C   0  0  2  0  0  0
    0.5380    2.1106    0.0630 C   0  0  1  0  0  0
    1.1766    2.0855    2.3663 C   0  0  2  0  0  0
    2.2917   -2.1386   -5.3931 C   0  0
    2.0291    4.2445    2.7304 C   0  0
    3.2818   -1.6918    1.3779 C   0  0
    2.1866    0.2676    4.5418 C   0  0
   -0.6270    2.5360   -0.8266 C   0  0
    0.5997   -1.7637   -1.3993 O   0  0
    0.1510    2.3791    1.4155 O   0  0
    1.4072    0.4010   -1.4301 O   0  0
    2.0502   -1.2415    0.8372 O   0  0
    2.6319    0.3331    3.1946 O   0  0
    2.3050    2.9468    2.2268 O   0  0
   -0.6242    4.6457   -1.1122 I   0  0
    4.2786   -6.6584   -0.4234 H   0  0
    6.3895   -0.7633    7.7320 H   0  0
    3.0065   -6.3347    1.6818 H   0  0
    5.0908   -4.6898   -1.6971 H   0  0
    5.0686   -2.6340    6.7776 H   0  0
    5.7704    1.5831    7.2141 H   0  0
    2.5448   -4.0526    2.5146 H   0  0
    4.6344   -2.4038   -0.8728 H   0  0
    3.1349   -2.1655    5.3093 H   0  0
    3.8386    2.0621    5.7471 H   0  0
    2.2858   -0.0006   -3.6716 H   0  0
    1.2095   -2.8896   -3.6319 H   0  0
    2.9381    0.5738    0.6187 H   0  0
    0.0000    0.0003    0.0011 H   0  0
    0.7036   -0.0060    2.6232 H   0  0
    1.3968    2.7418   -0.2005 H   0  0
    0.7465    2.2944    3.3737 H   0  0
    1.5487   -1.8460   -6.1412 H   0  0
    2.6126   -3.1617   -5.6129 H   0  0
    3.1595   -1.4797   -5.4941 H   0  0
    2.9110    4.8783    2.6092 H   0  0
    1.7588    4.1763    3.7872 H   0  0
    1.1951    4.6734    2.1700 H   0  0
    3.2187   -1.6767    2.4713 H   0  0
    4.0791   -1.0035    1.0774 H   0  0
    1.4266   -0.5163    4.6290 H   0  0
    1.7194    1.2207    4.8124 H   0  0
   -1.5654    2.2219   -0.3630 H   0  0
   -0.5472    2.0269   -1.7902 H   0  0
  1  3  1  0
  1  4  2  0
  2  5  1  0
  2  6  2  0
  3  7  2  0
  4  8  1  0
  5  9  2  0
  6 10  1  0
  7 11  1  0
  8 11  2  0
  9 12  1  0
 10 12  2  0
 11 23  1  0
 12 24  1  0
 13 14  2  0
 13 15  1  0
 14 21  1  0
 15 26  2  0
 15 28  1  0
 16 17  1  0
 16 18  1  0
 16 29  1  0
 17 19  1  0
 17 28  1  0
 18 20  1  0
 18 30  1  0
 19 25  1  0
 19 27  1  0
 20 27  1  0
 20 31  1  0
 22 31  1  0
 23 29  1  0
 24 30  1  0
 25 32  1  0
  1 33  1  0
  2 34  1  0
  3 35  1  0
  4 36  1  0
  5 37  1  0
  6 38  1  0
  7 39  1  0
  8 40  1  0
  9 41  1  0
 10 42  1  0
 13 43  1  0
 14 44  1  0
 16 45  1  0
 17 46  1  0
 18 47  1  0
 19 48  1  0
 20 49  1  0
 21 50  1  0
 21 51  1  0
 21 52  1  0
 22 53  1  0
 22 54  1  0
 22 55  1  0
 23 56  1  0
 23 57  1  0
 24 58  1  0
 24 59  1  0
 25 60  1  0
 25 61  1  0
M  END
> <Name>
BR020334

$$$$
BR020335
  SciTegic05062102053D

 42 44  0  0  1  0            999 V2000
    8.0159    1.0661    3.9155 C   0  0
    6.9804    0.1873    4.2330 C   0  0
    7.8780    1.9485    2.8439 C   0  0
    5.8070    0.1906    3.4788 C   0  0
    6.7046    1.9518    2.0898 C   0  0
    5.6690    1.0729    2.4072 C   0  0
    4.4297    1.0768    1.6102 C   0  0
    3.2555    0.5812    2.0261 C   0  0
    2.0759    0.6540    1.1344 C   0  0
   -1.0397    1.2611    1.4680 C   0  0  2  0  0  0
   -0.2098    0.0657    1.0720 C   0  0  2  0  0  0
   -1.0910   -1.0903    1.5387 C   0  0  1  0  0  0
   -1.7098    0.8153    2.7452 C   0  0  2  0  0  0
   -3.2560    1.7671    1.3668 C   0  0
   -4.4475    0.9586    0.8718 C   0  0
   -3.5327    3.2639    1.2831 C   0  0
   -0.3587   -2.3799    1.8619 C   0  0
    2.0637    1.1389    0.0141 O   0  0
   -2.1185    1.4546    0.5538 O   0  0
   -1.7712   -0.6206    2.7185 O   0  0
   -2.9938    1.4283    2.7339 O   0  0
    1.0192    0.0857    1.7854 O   0  0
   -1.6834   -4.0486    1.7792 I   0  0
    8.9290    1.0645    4.5034 H   0  0
    7.0871   -0.4990    5.0680 H   0  0
    8.6838    2.6336    2.5973 H   0  0
    5.0085   -0.5005    3.7385 H   0  0
    6.6122    2.6455    1.2575 H   0  0
    4.5107    1.5405    0.6296 H   0  0
    3.1249    0.1318    3.0044 H   0  0
   -0.4857    2.1985    1.5794 H   0  0
   -0.0013    0.0086   -0.0008 H   0  0
   -1.8635   -1.2914    0.7887 H   0  0
   -1.1619    1.1092    3.6456 H   0  0
   -4.2298   -0.1076    0.9397 H   0  0
   -4.6634    1.2093   -0.1671 H   0  0
   -5.3265    1.1788    1.4783 H   0  0
   -2.6685    3.8227    1.6417 H   0  0
   -4.3975    3.5171    1.8960 H   0  0
   -3.7347    3.5477    0.2505 H   0  0
    0.0853   -2.3098    2.8612 H   0  0
    0.4628   -2.5242    1.1514 H   0  0
  1  2  2  0
  1  3  1  0
  2  4  1  0
  3  5  2  0
  4  6  2  0
  5  6  1  0
  6  7  1  0
  7  8  2  0
  8  9  1  0
  9 18  2  0
  9 22  1  0
 10 11  1  0
 10 13  1  0
 10 19  1  0
 11 12  1  0
 11 22  1  0
 12 17  1  0
 12 20  1  0
 13 20  1  0
 13 21  1  0
 14 15  1  0
 14 16  1  0
 14 19  1  0
 14 21  1  0
 17 23  1  0
  1 24  1  0
  2 25  1  0
  3 26  1  0
  4 27  1  0
  5 28  1  0
  7 29  1  0
  8 30  1  0
 10 31  1  0
 11 32  1  0
 12 33  1  0
 13 34  1  0
 15 35  1  0
 15 36  1  0
 15 37  1  0
 16 38  1  0
 16 39  1  0
 16 40  1  0
 17 41  1  0
 17 42  1  0
M  END
> <Name>
BR020335

$$$$
BR020336
  SciTegic05062102053D

 35 36  0  0  1  0            999 V2000
    3.2539    0.5819    2.0254 C   0  0
    4.4310    1.0751    1.6190 C   0  0
    2.0759    0.6539    1.1345 C   0  0
   -1.0397    1.2611    1.4680 C   0  0  2  0  0  0
   -0.2098    0.0657    1.0720 C   0  0  2  0  0  0
   -1.0910   -1.0903    1.5387 C   0  0  1  0  0  0
   -1.7098    0.8153    2.7452 C   0  0  2  0  0  0
   -3.2560    1.7671    1.3668 C   0  0
    5.6682    1.0422    2.4552 C   0  0
   -4.4475    0.9586    0.8718 C   0  0
   -3.5327    3.2639    1.2831 C   0  0
   -0.3587   -2.3799    1.8619 C   0  0
    2.0645    1.1391    0.0143 O   0  0
   -2.1185    1.4546    0.5538 O   0  0
   -1.7712   -0.6206    2.7185 O   0  0
   -2.9938    1.4283    2.7339 O   0  0
    1.0192    0.0857    1.7854 O   0  0
   -1.6834   -4.0486    1.7792 I   0  0
    3.1396    0.1252    3.0027 H   0  0
    4.5310    1.5300    0.6370 H   0  0
   -0.4857    2.1985    1.5794 H   0  0
   -0.0013    0.0086   -0.0008 H   0  0
   -1.8635   -1.2914    0.7887 H   0  0
   -1.1619    1.1092    3.6456 H   0  0
    5.7308    1.9500    3.0630 H   0  0
    6.5774    0.9738    1.8495 H   0  0
    5.6404    0.1793    3.1275 H   0  0
   -4.2298   -0.1076    0.9397 H   0  0
   -4.6634    1.2093   -0.1671 H   0  0
   -5.3265    1.1788    1.4783 H   0  0
   -2.6685    3.8227    1.6417 H   0  0
   -4.3975    3.5171    1.8960 H   0  0
   -3.7347    3.5477    0.2505 H   0  0
    0.0853   -2.3098    2.8612 H   0  0
    0.4628   -2.5242    1.1514 H   0  0
  1  2  2  0
  1  3  1  0
  2  9  1  0
  3 13  2  0
  3 17  1  0
  4  5  1  0
  4  7  1  0
  4 14  1  0
  5  6  1  0
  5 17  1  0
  6 12  1  0
  6 15  1  0
  7 15  1  0
  7 16  1  0
  8 10  1  0
  8 11  1  0
  8 14  1  0
  8 16  1  0
 12 18  1  0
  1 19  1  0
  2 20  1  0
  4 21  1  0
  5 22  1  0
  6 23  1  0
  7 24  1  0
  9 25  1  0
  9 26  1  0
  9 27  1  0
 10 28  1  0
 10 29  1  0
 10 30  1  0
 11 31  1  0
 11 32  1  0
 11 33  1  0
 12 34  1  0
 12 35  1  0
M  END
> <Name>
BR020336

$$$$
BR020337
  SciTegic05062102053D

 68 72  0  0  1  0            999 V2000
    2.3244   -1.8629   -6.6398 C   0  0
   -3.9568   -2.2160    6.0566 C   0  0
    1.6554    4.6617    7.1390 C   0  0
    1.5188   -0.7595   -6.3586 C   0  0
    2.1991   -3.0287   -5.8841 C   0  0
   -4.1025   -0.8384    5.8930 C   0  0
   -2.8503   -2.8696    5.5144 C   0  0
    0.3290    4.2740    6.9493 C   0  0
    2.5275    4.7192    6.0518 C   0  0
    0.5879   -0.8218   -5.3217 C   0  0
    1.2682   -3.0910   -4.8472 C   0  0
   -3.1416   -0.1145    5.1871 C   0  0
   -1.8894   -2.1457    4.8084 C   0  0
   -0.1253    3.9436    5.6725 C   0  0
    2.0732    4.3889    4.7750 C   0  0
    0.4626   -1.9875   -4.5660 C   0  0
   -2.0351   -0.7681    4.6448 C   0  0
    0.7468    4.0011    4.5854 C   0  0
   -0.6836   -2.2192   -0.9472 C   0  0
    0.1373   -0.0736   -2.0848 C   0  0
    0.0644   -1.5967   -2.1215 C   0  0  2  0  0  0
    0.5337    0.3822   -0.6929 C   0  0  2  0  0  0
   -0.5404   -0.1102    0.2611 C   0  0  2  0  0  0
   -0.2374    0.3484    1.6885 C   0  0  1  0  0  0
    0.0055    1.8611    1.7037 C   0  0  2  0  0  0
    1.0136    2.2927    0.6318 C   0  0  2  0  0  0
    3.3222    2.5936    0.3120 C   0  0
   -0.5404   -2.0553   -3.4479 C   0  0
   -1.0012    0.0100    3.8851 C   0  0
    0.2588    3.6456    3.2117 C   0  0
   -1.1931   -3.3358   -1.0146 O   0  0
   -0.6450   -1.5465    0.2325 O   0  0
    0.6286    1.8048   -0.6585 O   0  0
   -1.3620    0.0432    2.5133 O   0  0
    0.4526    2.2551    2.9962 O   0  0
    2.3226    1.8548    0.9961 O   0  0
    3.0482   -1.8147   -7.4481 H   0  0
   -4.7044   -2.7793    6.6075 H   0  0
    2.0086    4.9202    8.1330 H   0  0
    1.6154    0.1479   -6.9477 H   0  0
    2.8254   -3.8883   -6.1035 H   0  0
   -4.9635   -0.3292    6.3161 H   0  0
   -2.7360   -3.9419    5.6425 H   0  0
   -0.3504    4.2302    7.7955 H   0  0
    3.5599    5.0221    6.1989 H   0  0
   -0.0355    0.0429   -5.1096 H   0  0
    1.1777   -4.0033   -4.2636 H   0  0
   -3.2635    0.9585    5.0644 H   0  0
   -1.0306   -2.6633    4.3894 H   0  0
   -1.1603    3.6424    5.5342 H   0  0
    2.7598    4.4365    3.9340 H   0  0
    0.8618    0.2959   -2.8213 H   0  0
   -0.8254    0.3749   -2.3649 H   0  0
    1.0879   -1.9903   -2.0574 H   0  0
    1.5102   -0.0573   -0.4494 H   0  0
   -1.5265    0.2850   -0.0209 H   0  0
    0.6158   -0.2011    2.1039 H   0  0
   -0.9529    2.3646    1.5229 H   0  0
    1.0412    3.3872    0.5866 H   0  0
    4.3102    2.2355    0.6117 H   0  0
    3.2197    3.6551    0.5510 H   0  0
    3.1963    2.4505   -0.7638 H   0  0
   -1.4086   -1.4328   -3.6856 H   0  0
   -0.9145   -3.0783   -3.3421 H   0  0
   -0.9294    1.0365    4.2604 H   0  0
   -0.0146   -0.4549    3.9859 H   0  0
   -0.8056    3.8792    3.1014 H   0  0
    0.8074    4.2074    2.4480 H   0  0
  1  4  1  0
  1  5  2  0
  2  6  1  0
  2  7  2  0
  3  8  1  0
  3  9  2  0
  4 10  2  0
  5 11  1  0
  6 12  2  0
  7 13  1  0
  8 14  2  0
  9 15  1  0
 10 16  1  0
 11 16  2  0
 12 17  1  0
 13 17  2  0
 14 18  1  0
 15 18  2  0
 16 28  1  0
 17 29  1  0
 18 30  1  0
 19 21  1  0
 19 31  2  0
 19 32  1  0
 20 21  1  0
 20 22  1  0
 21 28  1  0
 22 23  1  0
 22 33  1  0
 23 24  1  0
 23 32  1  0
 24 25  1  0
 24 34  1  0
 25 26  1  0
 25 35  1  0
 26 33  1  0
 26 36  1  0
 27 36  1  0
 29 34  1  0
 30 35  1  0
  1 37  1  0
  2 38  1  0
  3 39  1  0
  4 40  1  0
  5 41  1  0
  6 42  1  0
  7 43  1  0
  8 44  1  0
  9 45  1  0
 10 46  1  0
 11 47  1  0
 12 48  1  0
 13 49  1  0
 14 50  1  0
 15 51  1  0
 20 52  1  0
 20 53  1  0
 21 54  1  0
 22 55  1  0
 23 56  1  0
 24 57  1  0
 25 58  1  0
 26 59  1  0
 27 60  1  0
 27 61  1  0
 27 62  1  0
 28 63  1  0
 28 64  1  0
 29 65  1  0
 29 66  1  0
 30 67  1  0
 30 68  1  0
M  END
> <Name>
BR020337

$$$$
BR020338
  SciTegic05062102053D

 33 33  0  0  1  0            999 V2000
    1.9514    0.1836    0.8896 C   0  0  1  0  0  0
    0.8918    0.6285   -0.1205 C   0  0  1  0  0  0
    1.5562    0.6052    2.3034 C   0  0  2  0  0  0
    0.5380    2.1106    0.0630 C   0  0  1  0  0  0
    1.1766    2.0855    2.3663 C   0  0  2  0  0  0
    3.2818   -1.6918    1.3779 C   0  0
    2.1866    0.2676    4.5418 C   0  0
    2.0291    4.2445    2.7304 C   0  0
   -0.6270    2.5360   -0.8266 C   0  0
    0.1510    2.3791    1.4155 O   0  0
    1.4072    0.4010   -1.4301 O   0  0
   -0.8964    3.9056   -0.5907 O   0  0
    2.0502   -1.2415    0.8372 O   0  0
    2.6319    0.3331    3.1946 O   0  0
    2.3050    2.9468    2.2268 O   0  0
    2.9381    0.5738    0.6187 H   0  0
    0.0000    0.0003    0.0011 H   0  0
    0.7036   -0.0060    2.6232 H   0  0
    1.3968    2.7418   -0.2005 H   0  0
    0.7465    2.2944    3.3737 H   0  0
    3.3274   -2.7823    1.3238 H   0  0
    3.3662   -1.3640    2.4170 H   0  0
    4.1025   -1.2659    0.7958 H   0  0
    3.0355    0.0579    5.1972 H   0  0
    1.4339   -0.5187    4.6399 H   0  0
    1.7451    1.2283    4.8173 H   0  0
    2.9110    4.8783    2.6092 H   0  0
    1.7588    4.1763    3.7872 H   0  0
    1.1951    4.6734    2.1700 H   0  0
   -1.5120    1.9475   -0.5858 H   0  0
   -0.3647    2.3950   -1.8748 H   0  0
    2.2156    0.9314   -1.5045 H   0  0
   -1.6398    4.1539   -1.1664 H   0  0
  1  2  1  0
  1  3  1  0
  1 13  1  0
  2  4  1  0
  2 11  1  0
  3  5  1  0
  3 14  1  0
  4  9  1  0
  4 10  1  0
  5 10  1  0
  5 15  1  0
  6 13  1  0
  7 14  1  0
  8 15  1  0
  9 12  1  0
  1 16  1  0
  2 17  1  0
  3 18  1  0
  4 19  1  0
  5 20  1  0
  6 21  1  0
  6 22  1  0
  6 23  1  0
  7 24  1  0
  7 25  1  0
  7 26  1  0
  8 27  1  0
  8 28  1  0
  8 29  1  0
  9 30  1  0
  9 31  1  0
 11 32  1  0
 12 33  1  0
M  END
> <Name>
BR020338

$$$$
BR020339
  SciTegic05062102053D

 42 45  0  0  1  0            999 V2000
    2.1061    3.8421    5.8558 C   0  0
    1.4812    2.7147    6.3887 C   0  0
    1.8304    4.2394    4.5474 C   0  0
    0.5807    1.9844    5.6132 C   0  0
    0.9298    3.5092    3.7719 C   0  0
    0.3050    2.3817    4.3048 C   0  0
   -0.9398   -0.6103    2.3108 C   0  0
    0.6889    1.0692    1.4395 C   0  0
    0.0377    0.4873    2.6842 C   0  0  1  0  0  0
    1.4564   -0.0307    0.7386 C   0  0  1  0  0  0
    0.6018   -1.2610    0.4910 C   0  0  2  0  0  0
    0.2594   -1.1540   -0.9757 C   0  0  2  0  0  0
    1.4553   -0.4537   -1.5590 C   0  0  2  0  0  0
   -0.4455    0.4250   -2.4454 C   0  0
   -1.2278   -0.1950   -3.5984 C   0  0
   -0.7462    1.9120   -2.3173 C   0  0
   -0.6654    1.5949    3.4683 C   0  0
   -1.9788   -0.8109    2.9353 O   0  0
   -0.5883   -1.4145    1.2783 O   0  0
    1.9424    0.4279   -0.5339 O   0  0
   -0.8062   -0.2319   -1.2217 O   0  0
    0.9561    0.2458   -2.6943 O   0  0
    2.8063    4.4114    6.4603 H   0  0
    1.6950    2.4058    7.4078 H   0  0
    2.3159    5.1178    4.1326 H   0  0
    0.0987    1.1072    6.0367 H   0  0
    0.7212    3.8261    2.7535 H   0  0
   -0.0638    1.5016    0.7695 H   0  0
    1.3727    1.8884    1.6934 H   0  0
    0.7986    0.0342    3.3319 H   0  0
    2.3306   -0.3017    1.3431 H   0  0
    1.2157   -2.1570    0.6453 H   0  0
    0.0080   -2.1065   -1.4519 H   0  0
    2.2649   -1.1313   -1.8474 H   0  0
   -0.9992   -1.2577   -3.6733 H   0  0
   -0.9583    0.2927   -4.5347 H   0  0
   -2.2973   -0.0730   -3.4295 H   0  0
   -0.1790    2.3381   -1.4892 H   0  0
   -1.8098    2.0637   -2.1315 H   0  0
   -0.4711    2.4296   -3.2368 H   0  0
   -1.4378    1.1540    4.1058 H   0  0
   -1.1840    2.2602    2.7710 H   0  0
  1  2  1  0
  1  3  2  0
  2  4  2  0
  3  5  1  0
  4  6  1  0
  5  6  2  0
  6 17  1  0
  7  9  1  0
  7 18  2  0
  7 19  1  0
  8  9  1  0
  8 10  1  0
  9 17  1  0
 10 11  1  0
 10 20  1  0
 11 12  1  0
 11 19  1  0
 12 13  1  0
 12 21  1  0
 13 20  1  0
 13 22  1  0
 14 15  1  0
 14 16  1  0
 14 21  1  0
 14 22  1  0
  1 23  1  0
  2 24  1  0
  3 25  1  0
  4 26  1  0
  5 27  1  0
  8 28  1  0
  8 29  1  0
  9 30  1  0
 10 31  1  0
 11 32  1  0
 12 33  1  0
 13 34  1  0
 15 35  1  0
 15 36  1  0
 15 37  1  0
 16 38  1  0
 16 39  1  0
 16 40  1  0
 17 41  1  0
 17 42  1  0
M  END
> <Name>
BR020339

$$$$
BR020340
  SciTegic05062102053D

 35 37  0  0  1  0            999 V2000
   -0.9398   -0.6103    2.3108 C   0  0
    0.6889    1.0692    1.4395 C   0  0
    0.0377    0.4873    2.6842 C   0  0  1  0  0  0
    1.4564   -0.0307    0.7386 C   0  0  1  0  0  0
    0.6018   -1.2610    0.4910 C   0  0  2  0  0  0
    0.2594   -1.1540   -0.9757 C   0  0  2  0  0  0
    1.4553   -0.4537   -1.5590 C   0  0  2  0  0  0
   -0.4455    0.4250   -2.4454 C   0  0
   -1.2278   -0.1950   -3.5984 C   0  0
   -0.7462    1.9120   -2.3173 C   0  0
    0.2924    2.6538    3.9049 C   0  0
   -0.6654    1.5949    3.4683 C   0  0
   -1.9788   -0.8109    2.9353 O   0  0
   -0.5883   -1.4145    1.2783 O   0  0
    1.9424    0.4279   -0.5339 O   0  0
   -0.8062   -0.2319   -1.2217 O   0  0
    0.9561    0.2458   -2.6943 O   0  0
   -0.0638    1.5016    0.7695 H   0  0
    1.3727    1.8884    1.6934 H   0  0
    0.7986    0.0342    3.3319 H   0  0
    2.3306   -0.3017    1.3431 H   0  0
    1.2157   -2.1570    0.6453 H   0  0
    0.0080   -2.1065   -1.4519 H   0  0
    2.2649   -1.1313   -1.8474 H   0  0
   -0.9992   -1.2577   -3.6733 H   0  0
   -0.9583    0.2927   -4.5347 H   0  0
   -2.2973   -0.0730   -3.4295 H   0  0
   -0.1790    2.3381   -1.4892 H   0  0
   -1.8098    2.0637   -2.1315 H   0  0
   -0.4711    2.4296   -3.2368 H   0  0
    1.0708    2.2075    4.5349 H   0  0
   -0.2179    3.4254    4.4911 H   0  0
    0.7797    3.1200    3.0420 H   0  0
   -1.4421    2.0380    2.8400 H   0  0
   -1.1534    1.1575    4.3427 H   0  0
  1  3  1  0
  1 13  2  0
  1 14  1  0
  2  3  1  0
  2  4  1  0
  3 12  1  0
  4  5  1  0
  4 15  1  0
  5  6  1  0
  5 14  1  0
  6  7  1  0
  6 16  1  0
  7 15  1  0
  7 17  1  0
  8  9  1  0
  8 10  1  0
  8 16  1  0
  8 17  1  0
 11 12  1  0
  2 18  1  0
  2 19  1  0
  3 20  1  0
  4 21  1  0
  5 22  1  0
  6 23  1  0
  7 24  1  0
  9 25  1  0
  9 26  1  0
  9 27  1  0
 10 28  1  0
 10 29  1  0
 10 30  1  0
 11 31  1  0
 11 32  1  0
 11 33  1  0
 12 34  1  0
 12 35  1  0
M  END
> <Name>
BR020340

$$$$
BR020341
  SciTegic05062102053D

 61 64  0  0  1  0            999 V2000
   -3.9568   -2.2160    6.0566 C   0  0
    1.6554    4.6617    7.1390 C   0  0
   -4.1025   -0.8384    5.8930 C   0  0
   -2.8503   -2.8696    5.5144 C   0  0
    0.3290    4.2740    6.9493 C   0  0
    2.5275    4.7192    6.0518 C   0  0
   -3.1416   -0.1145    5.1871 C   0  0
   -1.8894   -2.1457    4.8084 C   0  0
   -0.1253    3.9436    5.6725 C   0  0
    2.0732    4.3889    4.7750 C   0  0
   -2.0351   -0.7681    4.6448 C   0  0
    0.7468    4.0011    4.5854 C   0  0
   -0.6836   -2.2192   -0.9472 C   0  0
    0.1373   -0.0736   -2.0848 C   0  0
    0.0644   -1.5967   -2.1215 C   0  0  2  0  0  0
    0.5337    0.3822   -0.6929 C   0  0  2  0  0  0
   -0.5404   -0.1102    0.2611 C   0  0  2  0  0  0
   -0.2374    0.3484    1.6885 C   0  0  1  0  0  0
    0.0055    1.8611    1.7037 C   0  0  2  0  0  0
    1.0136    2.2927    0.6318 C   0  0  2  0  0  0
    0.2475   -1.5568   -4.6142 C   0  0
    3.3222    2.5936    0.3120 C   0  0
   -1.0012    0.0100    3.8851 C   0  0
    0.2588    3.6456    3.2117 C   0  0
   -0.5404   -2.0553   -3.4479 C   0  0
   -1.1931   -3.3358   -1.0146 O   0  0
   -0.6450   -1.5465    0.2325 O   0  0
    0.6286    1.8048   -0.6585 O   0  0
   -1.3620    0.0432    2.5133 O   0  0
    0.4526    2.2551    2.9962 O   0  0
    2.3226    1.8548    0.9961 O   0  0
   -4.7044   -2.7793    6.6075 H   0  0
    2.0086    4.9202    8.1330 H   0  0
   -4.9635   -0.3292    6.3161 H   0  0
   -2.7360   -3.9419    5.6425 H   0  0
   -0.3504    4.2302    7.7955 H   0  0
    3.5599    5.0221    6.1989 H   0  0
   -3.2635    0.9585    5.0644 H   0  0
   -1.0306   -2.6633    4.3894 H   0  0
   -1.1603    3.6424    5.5342 H   0  0
    2.7598    4.4365    3.9340 H   0  0
    0.8618    0.2959   -2.8213 H   0  0
   -0.8254    0.3749   -2.3649 H   0  0
    1.0879   -1.9903   -2.0574 H   0  0
    1.5102   -0.0573   -0.4494 H   0  0
   -1.5265    0.2850   -0.0209 H   0  0
    0.6158   -0.2011    2.1039 H   0  0
   -0.9529    2.3646    1.5229 H   0  0
    1.0412    3.3872    0.5866 H   0  0
    0.2790   -0.4611   -4.5946 H   0  0
   -0.2131   -1.8663   -5.5584 H   0  0
    1.2775   -1.9270   -4.5771 H   0  0
    4.3102    2.2355    0.6117 H   0  0
    3.2197    3.6551    0.5510 H   0  0
    3.1963    2.4505   -0.7638 H   0  0
   -0.9294    1.0365    4.2604 H   0  0
   -0.0146   -0.4549    3.9859 H   0  0
   -0.8056    3.8792    3.1014 H   0  0
    0.8074    4.2074    2.4480 H   0  0
   -0.5728   -3.1475   -3.4660 H   0  0
   -1.5682   -1.6903   -3.5158 H   0  0
  1  3  1  0
  1  4  2  0
  2  5  1  0
  2  6  2  0
  3  7  2  0
  4  8  1  0
  5  9  2  0
  6 10  1  0
  7 11  1  0
  8 11  2  0
  9 12  1  0
 10 12  2  0
 11 23  1  0
 12 24  1  0
 13 15  1  0
 13 26  2  0
 13 27  1  0
 14 15  1  0
 14 16  1  0
 15 25  1  0
 16 17  1  0
 16 28  1  0
 17 18  1  0
 17 27  1  0
 18 19  1  0
 18 29  1  0
 19 20  1  0
 19 30  1  0
 20 28  1  0
 20 31  1  0
 21 25  1  0
 22 31  1  0
 23 29  1  0
 24 30  1  0
  1 32  1  0
  2 33  1  0
  3 34  1  0
  4 35  1  0
  5 36  1  0
  6 37  1  0
  7 38  1  0
  8 39  1  0
  9 40  1  0
 10 41  1  0
 14 42  1  0
 14 43  1  0
 15 44  1  0
 16 45  1  0
 17 46  1  0
 18 47  1  0
 19 48  1  0
 20 49  1  0
 21 50  1  0
 21 51  1  0
 21 52  1  0
 22 53  1  0
 22 54  1  0
 22 55  1  0
 23 56  1  0
 23 57  1  0
 24 58  1  0
 24 59  1  0
 25 60  1  0
 25 61  1  0
M  END
> <Name>
BR020341

$$$$
BR020342
  SciTegic05062102053D

 68 71  0  0  1  0            999 V2000
    3.2981   -2.4951   -7.9436 C   0  0
    4.0763   -5.6551   -0.0601 C   0  0
    5.5411   -0.5551    7.0867 C   0  0
    3.7718   -1.4742   -7.1197 C   0  0
    2.3042   -3.3587   -7.4828 C   0  0
    3.3613   -5.4732    1.1236 C   0  0
    4.5331   -4.5485   -0.7761 C   0  0
    4.7984   -1.6069    6.5503 C   0  0
    5.1930    0.7640    6.7958 C   0  0
    3.2518   -1.3168   -5.8350 C   0  0
    1.7842   -3.2013   -6.1981 C   0  0
    3.1029   -4.1847    1.5914 C   0  0
    4.2747   -3.2601   -0.3083 C   0  0
    3.7077   -1.3396    5.7229 C   0  0
    4.1023    1.0312    5.9684 C   0  0
    2.2580   -2.1804   -5.3742 C   0  0
    3.5596   -3.0781    0.8754 C   0  0
    3.3596   -0.0205    5.4320 C   0  0
    1.7083   -2.0146   -4.0171 C   0  0
    1.7894   -0.8878   -3.2953 C   0  0
    1.1864   -0.8421   -1.9439 C   0  0
    1.9514    0.1836    0.8896 C   0  0  1  0  0  0
    0.8918    0.6285   -0.1205 C   0  0  1  0  0  0
    1.5562    0.6052    2.3034 C   0  0  2  0  0  0
    0.5380    2.1106    0.0630 C   0  0  1  0  0  0
    1.1766    2.0855    2.3663 C   0  0  2  0  0  0
   -0.6270    2.5360   -0.8266 C   0  0
    2.0291    4.2445    2.7304 C   0  0
    3.2818   -1.6918    1.3779 C   0  0
    2.1866    0.2676    4.5418 C   0  0
    0.5995   -1.7633   -1.3985 O   0  0
    0.1510    2.3791    1.4155 O   0  0
    1.4072    0.4010   -1.4301 O   0  0
    2.0502   -1.2415    0.8372 O   0  0
    2.6319    0.3331    3.1946 O   0  0
    2.3050    2.9468    2.2268 O   0  0
    3.7020   -2.6169   -8.9443 H   0  0
    4.2786   -6.6584   -0.4234 H   0  0
    6.3895   -0.7633    7.7320 H   0  0
    4.5449   -0.8009   -7.4786 H   0  0
    1.9344   -4.1529   -8.1247 H   0  0
    3.0065   -6.3347    1.6818 H   0  0
    5.0908   -4.6898   -1.6971 H   0  0
    5.0686   -2.6340    6.7776 H   0  0
    5.7704    1.5831    7.2141 H   0  0
    3.6313   -0.5163   -5.2043 H   0  0
    1.0098   -3.8825   -5.8534 H   0  0
    2.5448   -4.0526    2.5146 H   0  0
    4.6344   -2.4038   -0.8728 H   0  0
    3.1349   -2.1655    5.3093 H   0  0
    3.8386    2.0621    5.7471 H   0  0
    1.1916   -2.8841   -3.6169 H   0  0
    2.2746    0.0089   -3.6649 H   0  0
    2.9381    0.5738    0.6187 H   0  0
    0.0000    0.0003    0.0011 H   0  0
    0.7036   -0.0060    2.6232 H   0  0
    1.3968    2.7418   -0.2005 H   0  0
    0.7465    2.2944    3.3737 H   0  0
   -1.5054    1.9336   -0.5991 H   0  0
   -0.3624    2.3980   -1.8739 H   0  0
   -0.8606    3.5856   -0.6536 H   0  0
    2.9110    4.8783    2.6092 H   0  0
    1.7588    4.1763    3.7872 H   0  0
    1.1951    4.6734    2.1700 H   0  0
    3.2187   -1.6767    2.4713 H   0  0
    4.0791   -1.0035    1.0774 H   0  0
    1.4266   -0.5163    4.6290 H   0  0
    1.7194    1.2207    4.8124 H   0  0
  1  4  1  0
  1  5  2  0
  2  6  1  0
  2  7  2  0
  3  8  1  0
  3  9  2  0
  4 10  2  0
  5 11  1  0
  6 12  2  0
  7 13  1  0
  8 14  2  0
  9 15  1  0
 10 16  1  0
 11 16  2  0
 12 17  1  0
 13 17  2  0
 14 18  1  0
 15 18  2  0
 16 19  1  0
 17 29  1  0
 18 30  1  0
 19 20  2  0
 20 21  1  0
 21 31  2  0
 21 33  1  0
 22 23  1  0
 22 24  1  0
 22 34  1  0
 23 25  1  0
 23 33  1  0
 24 26  1  0
 24 35  1  0
 25 27  1  0
 25 32  1  0
 26 32  1  0
 26 36  1  0
 28 36  1  0
 29 34  1  0
 30 35  1  0
  1 37  1  0
  2 38  1  0
  3 39  1  0
  4 40  1  0
  5 41  1  0
  6 42  1  0
  7 43  1  0
  8 44  1  0
  9 45  1  0
 10 46  1  0
 11 47  1  0
 12 48  1  0
 13 49  1  0
 14 50  1  0
 15 51  1  0
 19 52  1  0
 20 53  1  0
 22 54  1  0
 23 55  1  0
 24 56  1  0
 25 57  1  0
 26 58  1  0
 27 59  1  0
 27 60  1  0
 27 61  1  0
 28 62  1  0
 28 63  1  0
 28 64  1  0
 29 65  1  0
 29 66  1  0
 30 67  1  0
 30 68  1  0
M  END
> <Name>
BR020342

$$$$
BR020343
  SciTegic05062102053D

 61 63  0  0  1  0            999 V2000
    4.0763   -5.6551   -0.0601 C   0  0
    5.5411   -0.5551    7.0867 C   0  0
    3.3613   -5.4732    1.1236 C   0  0
    4.5331   -4.5485   -0.7761 C   0  0
    4.7984   -1.6069    6.5503 C   0  0
    5.1930    0.7640    6.7958 C   0  0
    3.1029   -4.1847    1.5914 C   0  0
    4.2747   -3.2601   -0.3083 C   0  0
    3.7077   -1.3396    5.7229 C   0  0
    4.1023    1.0312    5.9684 C   0  0
    3.5596   -3.0781    0.8754 C   0  0
    3.3596   -0.0205    5.4320 C   0  0
    1.7881   -0.8875   -3.2940 C   0  0
    1.7114   -2.0085   -4.0230 C   0  0
    1.1865   -0.8420   -1.9439 C   0  0
    1.9514    0.1836    0.8896 C   0  0  1  0  0  0
    0.8918    0.6285   -0.1205 C   0  0  1  0  0  0
    1.5562    0.6052    2.3034 C   0  0  2  0  0  0
    0.5380    2.1106    0.0630 C   0  0  1  0  0  0
    1.1766    2.0855    2.3663 C   0  0  2  0  0  0
    2.2917   -2.1386   -5.3931 C   0  0
   -0.6270    2.5360   -0.8266 C   0  0
    2.0291    4.2445    2.7304 C   0  0
    3.2818   -1.6918    1.3779 C   0  0
    2.1866    0.2676    4.5418 C   0  0
    0.5997   -1.7637   -1.3993 O   0  0
    0.1510    2.3791    1.4155 O   0  0
    1.4072    0.4010   -1.4301 O   0  0
    2.0502   -1.2415    0.8372 O   0  0
    2.6319    0.3331    3.1946 O   0  0
    2.3050    2.9468    2.2268 O   0  0
    4.2786   -6.6584   -0.4234 H   0  0
    6.3895   -0.7633    7.7320 H   0  0
    3.0065   -6.3347    1.6818 H   0  0
    5.0908   -4.6898   -1.6971 H   0  0
    5.0686   -2.6340    6.7776 H   0  0
    5.7704    1.5831    7.2141 H   0  0
    2.5448   -4.0526    2.5146 H   0  0
    4.6344   -2.4038   -0.8728 H   0  0
    3.1349   -2.1655    5.3093 H   0  0
    3.8386    2.0621    5.7471 H   0  0
    2.2858   -0.0006   -3.6716 H   0  0
    1.2095   -2.8896   -3.6319 H   0  0
    2.9381    0.5738    0.6187 H   0  0
    0.0000    0.0003    0.0011 H   0  0
    0.7036   -0.0060    2.6232 H   0  0
    1.3968    2.7418   -0.2005 H   0  0
    0.7465    2.2944    3.3737 H   0  0
    1.5487   -1.8460   -6.1412 H   0  0
    2.6126   -3.1617   -5.6129 H   0  0
    3.1595   -1.4797   -5.4941 H   0  0
   -1.5054    1.9336   -0.5991 H   0  0
   -0.3624    2.3980   -1.8739 H   0  0
   -0.8606    3.5856   -0.6536 H   0  0
    2.9110    4.8783    2.6092 H   0  0
    1.7588    4.1763    3.7872 H   0  0
    1.1951    4.6734    2.1700 H   0  0
    3.2187   -1.6767    2.4713 H   0  0
    4.0791   -1.0035    1.0774 H   0  0
    1.4266   -0.5163    4.6290 H   0  0
    1.7194    1.2207    4.8124 H   0  0
  1  3  1  0
  1  4  2  0
  2  5  1  0
  2  6  2  0
  3  7  2  0
  4  8  1  0
  5  9  2  0
  6 10  1  0
  7 11  1  0
  8 11  2  0
  9 12  1  0
 10 12  2  0
 11 24  1  0
 12 25  1  0
 13 14  2  0
 13 15  1  0
 14 21  1  0
 15 26  2  0
 15 28  1  0
 16 17  1  0
 16 18  1  0
 16 29  1  0
 17 19  1  0
 17 28  1  0
 18 20  1  0
 18 30  1  0
 19 22  1  0
 19 27  1  0
 20 27  1  0
 20 31  1  0
 23 31  1  0
 24 29  1  0
 25 30  1  0
  1 32  1  0
  2 33  1  0
  3 34  1  0
  4 35  1  0
  5 36  1  0
  6 37  1  0
  7 38  1  0
  8 39  1  0
  9 40  1  0
 10 41  1  0
 13 42  1  0
 14 43  1  0
 16 44  1  0
 17 45  1  0
 18 46  1  0
 19 47  1  0
 20 48  1  0
 21 49  1  0
 21 50  1  0
 21 51  1  0
 22 52  1  0
 22 53  1  0
 22 54  1  0
 23 55  1  0
 23 56  1  0
 23 57  1  0
 24 58  1  0
 24 59  1  0
 25 60  1  0
 25 61  1  0
M  END
> <Name>
BR020343

$$$$
BR020344
  SciTegic05062102053D

 42 44  0  0  1  0            999 V2000
    8.0159    1.0661    3.9155 C   0  0
    6.9804    0.1873    4.2330 C   0  0
    7.8780    1.9485    2.8439 C   0  0
    5.8070    0.1906    3.4788 C   0  0
    6.7046    1.9518    2.0898 C   0  0
    5.6690    1.0729    2.4072 C   0  0
    4.4297    1.0768    1.6102 C   0  0
    3.2555    0.5812    2.0261 C   0  0
    2.0759    0.6540    1.1344 C   0  0
   -1.0397    1.2611    1.4680 C   0  0  2  0  0  0
   -0.2098    0.0657    1.0720 C   0  0  2  0  0  0
   -1.0910   -1.0903    1.5387 C   0  0  1  0  0  0
   -1.7098    0.8153    2.7452 C   0  0  2  0  0  0
   -3.2560    1.7671    1.3668 C   0  0
   -0.3587   -2.3799    1.8619 C   0  0
   -4.4475    0.9586    0.8718 C   0  0
   -3.5327    3.2639    1.2831 C   0  0
    2.0637    1.1389    0.0141 O   0  0
   -2.1185    1.4546    0.5538 O   0  0
   -1.7712   -0.6206    2.7185 O   0  0
   -2.9938    1.4283    2.7339 O   0  0
    1.0192    0.0857    1.7854 O   0  0
    8.9290    1.0645    4.5034 H   0  0
    7.0871   -0.4990    5.0680 H   0  0
    8.6838    2.6336    2.5973 H   0  0
    5.0085   -0.5005    3.7385 H   0  0
    6.6122    2.6455    1.2575 H   0  0
    4.5107    1.5405    0.6296 H   0  0
    3.1249    0.1318    3.0044 H   0  0
   -0.4857    2.1985    1.5794 H   0  0
   -0.0013    0.0086   -0.0008 H   0  0
   -1.8635   -1.2914    0.7887 H   0  0
   -1.1619    1.1092    3.6456 H   0  0
    0.4165   -2.1983    2.6094 H   0  0
    0.1113   -2.7841    0.9629 H   0  0
   -1.0558   -3.1229    2.2555 H   0  0
   -4.2298   -0.1076    0.9397 H   0  0
   -4.6634    1.2093   -0.1671 H   0  0
   -5.3265    1.1788    1.4783 H   0  0
   -2.6685    3.8227    1.6417 H   0  0
   -4.3975    3.5171    1.8960 H   0  0
   -3.7347    3.5477    0.2505 H   0  0
  1  2  2  0
  1  3  1  0
  2  4  1  0
  3  5  2  0
  4  6  2  0
  5  6  1  0
  6  7  1  0
  7  8  2  0
  8  9  1  0
  9 18  2  0
  9 22  1  0
 10 11  1  0
 10 13  1  0
 10 19  1  0
 11 12  1  0
 11 22  1  0
 12 15  1  0
 12 20  1  0
 13 20  1  0
 13 21  1  0
 14 16  1  0
 14 17  1  0
 14 19  1  0
 14 21  1  0
  1 23  1  0
  2 24  1  0
  3 25  1  0
  4 26  1  0
  5 27  1  0
  7 28  1  0
  8 29  1  0
 10 30  1  0
 11 31  1  0
 12 32  1  0
 13 33  1  0
 15 34  1  0
 15 35  1  0
 15 36  1  0
 16 37  1  0
 16 38  1  0
 16 39  1  0
 17 40  1  0
 17 41  1  0
 17 42  1  0
M  END
> <Name>
BR020344

$$$$
BR020345
  SciTegic05062102053D

 35 36  0  0  1  0            999 V2000
    3.2539    0.5819    2.0254 C   0  0
    4.4310    1.0751    1.6190 C   0  0
    2.0759    0.6539    1.1345 C   0  0
   -1.0397    1.2611    1.4680 C   0  0  2  0  0  0
   -0.2098    0.0657    1.0720 C   0  0  2  0  0  0
   -1.0910   -1.0903    1.5387 C   0  0  1  0  0  0
   -1.7098    0.8153    2.7452 C   0  0  2  0  0  0
   -3.2560    1.7671    1.3668 C   0  0
    5.6682    1.0422    2.4552 C   0  0
   -0.3587   -2.3799    1.8619 C   0  0
   -4.4475    0.9586    0.8718 C   0  0
   -3.5327    3.2639    1.2831 C   0  0
    2.0645    1.1391    0.0143 O   0  0
   -2.1185    1.4546    0.5538 O   0  0
   -1.7712   -0.6206    2.7185 O   0  0
   -2.9938    1.4283    2.7339 O   0  0
    1.0192    0.0857    1.7854 O   0  0
    3.1396    0.1252    3.0027 H   0  0
    4.5310    1.5300    0.6370 H   0  0
   -0.4857    2.1985    1.5794 H   0  0
   -0.0013    0.0086   -0.0008 H   0  0
   -1.8635   -1.2914    0.7887 H   0  0
   -1.1619    1.1092    3.6456 H   0  0
    5.7308    1.9500    3.0630 H   0  0
    6.5774    0.9738    1.8495 H   0  0
    5.6404    0.1793    3.1275 H   0  0
    0.4165   -2.1983    2.6094 H   0  0
    0.1113   -2.7841    0.9629 H   0  0
   -1.0558   -3.1229    2.2555 H   0  0
   -4.2298   -0.1076    0.9397 H   0  0
   -4.6634    1.2093   -0.1671 H   0  0
   -5.3265    1.1788    1.4783 H   0  0
   -2.6685    3.8227    1.6417 H   0  0
   -4.3975    3.5171    1.8960 H   0  0
   -3.7347    3.5477    0.2505 H   0  0
  1  2  2  0
  1  3  1  0
  2  9  1  0
  3 13  2  0
  3 17  1  0
  4  5  1  0
  4  7  1  0
  4 14  1  0
  5  6  1  0
  5 17  1  0
  6 10  1  0
  6 15  1  0
  7 15  1  0
  7 16  1  0
  8 11  1  0
  8 12  1  0
  8 14  1  0
  8 16  1  0
  1 18  1  0
  2 19  1  0
  4 20  1  0
  5 21  1  0
  6 22  1  0
  7 23  1  0
  9 24  1  0
  9 25  1  0
  9 26  1  0
 10 27  1  0
 10 28  1  0
 10 29  1  0
 11 30  1  0
 11 31  1  0
 11 32  1  0
 12 33  1  0
 12 34  1  0
 12 35  1  0
M  END
> <Name>
BR020345

$$$$
BR020346
  SciTegic05062102053D

 61 63  0  0  1  0            999 V2000
    2.5795   -1.9507   -8.3209 C   0  0
    3.3567   -1.4171   -7.2929 C   0  0
    1.2542   -2.3116   -8.0779 C   0  0
    0.9869    2.8773   -6.1612 C   0  0
    0.3609    1.9925   -7.0392 C   0  0
    2.8087   -1.2444   -6.0219 C   0  0
    0.7061   -2.1389   -6.8069 C   0  0
    0.4626    3.0813   -4.8848 C   0  0
   -0.7895    1.3117   -6.6409 C   0  0
    1.4834   -1.6053   -5.7789 C   0  0
   -0.6878    2.4004   -4.4865 C   0  0
   -1.3139    1.5157   -5.3645 C   0  0
    0.9039   -1.4231   -4.4364 C   0  0
    1.3947   -0.5976   -3.5010 C   0  0
   -1.1936    2.6626   -3.1154 C   0  0
    0.7146   -0.4939   -2.1900 C   0  0
    1.9514    0.1836    0.8896 C   0  0  1  0  0  0
    0.8918    0.6285   -0.1205 C   0  0  1  0  0  0
    1.5562    0.6052    2.3034 C   0  0  2  0  0  0
    0.5380    2.1106    0.0630 C   0  0  1  0  0  0
    1.1766    2.0855    2.3663 C   0  0  2  0  0  0
    3.2818   -1.6918    1.3779 C   0  0
    2.1866    0.2676    4.5418 C   0  0
    2.0291    4.2445    2.7304 C   0  0
   -0.6270    2.5360   -0.8266 C   0  0
   -2.3046    3.1149   -2.8863 O   0  0
   -0.2877   -1.1085   -1.8614 O   0  0
    0.1510    2.3791    1.4155 O   0  0
   -0.2592    2.3311   -2.1781 O   0  0
    1.4072    0.4010   -1.4301 O   0  0
    2.0502   -1.2415    0.8372 O   0  0
    2.6319    0.3331    3.1946 O   0  0
    2.3050    2.9468    2.2268 O   0  0
   -3.0431    0.4600   -4.8359 I   0  0
    3.0058   -2.0840   -9.3108 H   0  0
    4.3884   -1.1350   -7.4822 H   0  0
    0.6486   -2.7260   -8.8786 H   0  0
    1.8822    3.4072   -6.4721 H   0  0
    0.7699    1.8337   -8.0326 H   0  0
    3.4271   -0.8272   -5.2307 H   0  0
   -0.3285   -2.4250   -6.6332 H   0  0
    0.9614    3.7737   -4.2114 H   0  0
   -1.2588    0.6276   -7.3436 H   0  0
    0.0050   -2.0022   -4.2371 H   0  0
    2.2742    0.0151   -3.6661 H   0  0
    2.9381    0.5738    0.6187 H   0  0
    0.0000    0.0003    0.0011 H   0  0
    0.7036   -0.0060    2.6232 H   0  0
    1.3968    2.7418   -0.2005 H   0  0
    0.7465    2.2944    3.3737 H   0  0
    3.3274   -2.7823    1.3238 H   0  0
    3.3662   -1.3640    2.4170 H   0  0
    4.1025   -1.2659    0.7958 H   0  0
    3.0355    0.0579    5.1972 H   0  0
    1.4339   -0.5187    4.6399 H   0  0
    1.7451    1.2283    4.8173 H   0  0
    2.9110    4.8783    2.6092 H   0  0
    1.7588    4.1763    3.7872 H   0  0
    1.1951    4.6734    2.1700 H   0  0
   -0.8484    3.5913   -0.6688 H   0  0
   -1.5076    1.9364   -0.5973 H   0  0
  1  2  1  0
  1  3  2  0
  2  6  2  0
  3  7  1  0
  4  5  2  0
  4  8  1  0
  5  9  1  0
  6 10  1  0
  7 10  2  0
  8 11  2  0
  9 12  2  0
 10 13  1  0
 11 12  1  0
 11 15  1  0
 12 34  1  0
 13 14  2  0
 14 16  1  0
 15 26  2  0
 15 29  1  0
 16 27  2  0
 16 30  1  0
 17 18  1  0
 17 19  1  0
 17 31  1  0
 18 20  1  0
 18 30  1  0
 19 21  1  0
 19 32  1  0
 20 25  1  0
 20 28  1  0
 21 28  1  0
 21 33  1  0
 22 31  1  0
 23 32  1  0
 24 33  1  0
 25 29  1  0
  1 35  1  0
  2 36  1  0
  3 37  1  0
  4 38  1  0
  5 39  1  0
  6 40  1  0
  7 41  1  0
  8 42  1  0
  9 43  1  0
 13 44  1  0
 14 45  1  0
 17 46  1  0
 18 47  1  0
 19 48  1  0
 20 49  1  0
 21 50  1  0
 22 51  1  0
 22 52  1  0
 22 53  1  0
 23 54  1  0
 23 55  1  0
 23 56  1  0
 24 57  1  0
 24 58  1  0
 24 59  1  0
 25 60  1  0
 25 61  1  0
M  END
> <Name>
BR020346

$$$$
BR020347
  SciTegic05062102053D

 54 55  0  0  1  0            999 V2000
    0.9869    2.8773   -6.1612 C   0  0
    0.3609    1.9925   -7.0392 C   0  0
    0.4626    3.0813   -4.8848 C   0  0
   -0.7895    1.3117   -6.6409 C   0  0
   -0.6878    2.4004   -4.4865 C   0  0
   -1.3139    1.5157   -5.3645 C   0  0
    1.3935   -0.5968   -3.4998 C   0  0
    0.9102   -1.4182   -4.4408 C   0  0
   -1.1936    2.6626   -3.1154 C   0  0
    0.7147   -0.4938   -2.1900 C   0  0
    1.9514    0.1836    0.8896 C   0  0  1  0  0  0
    0.8918    0.6285   -0.1205 C   0  0  1  0  0  0
    1.5562    0.6052    2.3034 C   0  0  2  0  0  0
    0.5380    2.1106    0.0630 C   0  0  1  0  0  0
    1.1766    2.0855    2.3663 C   0  0  2  0  0  0
    1.5344   -1.5816   -5.7879 C   0  0
    3.2818   -1.6918    1.3779 C   0  0
    2.1866    0.2676    4.5418 C   0  0
    2.0291    4.2445    2.7304 C   0  0
   -0.6270    2.5360   -0.8266 C   0  0
   -2.3046    3.1149   -2.8863 O   0  0
   -0.2876   -1.1089   -1.8622 O   0  0
    0.1510    2.3791    1.4155 O   0  0
   -0.2592    2.3311   -2.1781 O   0  0
    1.4072    0.4010   -1.4301 O   0  0
    2.0502   -1.2415    0.8372 O   0  0
    2.6319    0.3331    3.1946 O   0  0
    2.3050    2.9468    2.2268 O   0  0
   -3.0431    0.4600   -4.8359 I   0  0
    1.8822    3.4072   -6.4721 H   0  0
    0.7699    1.8337   -8.0326 H   0  0
    0.9614    3.7737   -4.2114 H   0  0
   -1.2588    0.6276   -7.3436 H   0  0
    2.2807    0.0026   -3.6742 H   0  0
    0.0202   -2.0129   -4.2522 H   0  0
    2.9381    0.5738    0.6187 H   0  0
    0.0000    0.0003    0.0011 H   0  0
    0.7036   -0.0060    2.6232 H   0  0
    1.3968    2.7418   -0.2005 H   0  0
    0.7465    2.2944    3.3737 H   0  0
    1.1031   -0.8597   -6.4880 H   0  0
    1.3832   -2.5857   -6.1968 H   0  0
    2.6112   -1.3978   -5.7241 H   0  0
    3.3274   -2.7823    1.3238 H   0  0
    3.3662   -1.3640    2.4170 H   0  0
    4.1025   -1.2659    0.7958 H   0  0
    3.0355    0.0579    5.1972 H   0  0
    1.4339   -0.5187    4.6399 H   0  0
    1.7451    1.2283    4.8173 H   0  0
    2.9110    4.8783    2.6092 H   0  0
    1.7588    4.1763    3.7872 H   0  0
    1.1951    4.6734    2.1700 H   0  0
   -0.8484    3.5913   -0.6688 H   0  0
   -1.5076    1.9364   -0.5973 H   0  0
  1  2  2  0
  1  3  1  0
  2  4  1  0
  3  5  2  0
  4  6  2  0
  5  6  1  0
  5  9  1  0
  6 29  1  0
  7  8  2  0
  7 10  1  0
  8 16  1  0
  9 21  2  0
  9 24  1  0
 10 22  2  0
 10 25  1  0
 11 12  1  0
 11 13  1  0
 11 26  1  0
 12 14  1  0
 12 25  1  0
 13 15  1  0
 13 27  1  0
 14 20  1  0
 14 23  1  0
 15 23  1  0
 15 28  1  0
 17 26  1  0
 18 27  1  0
 19 28  1  0
 20 24  1  0
  1 30  1  0
  2 31  1  0
  3 32  1  0
  4 33  1  0
  7 34  1  0
  8 35  1  0
 11 36  1  0
 12 37  1  0
 13 38  1  0
 14 39  1  0
 15 40  1  0
 16 41  1  0
 16 42  1  0
 16 43  1  0
 17 44  1  0
 17 45  1  0
 17 46  1  0
 18 47  1  0
 18 48  1  0
 18 49  1  0
 19 50  1  0
 19 51  1  0
 19 52  1  0
 20 53  1  0
 20 54  1  0
M  END
> <Name>
BR020347

$$$$
BR020348
  SciTegic05062102053D

 55 56  0  0  1  0            999 V2000
   -0.4733   -4.4759    4.2628 C   0  0
    0.9168   -4.5658    4.1919 C   0  0
   -1.1987   -4.0082    3.1670 C   0  0
    1.5816   -4.1879    3.0253 C   0  0
   -0.5340   -3.6303    2.0004 C   0  0
    0.8562   -3.7201    1.9295 C   0  0
    2.7044    0.5163   -2.6876 C   0  0
    4.0117    0.7658   -2.5376 C   0  0
   -1.3655   -3.1413    0.8705 C   0  0
    1.8016    0.5798   -1.5182 C   0  0
   -0.9994    1.7402   -0.8321 C   0  0  1  0  0  0
   -0.4755    0.3023   -0.9404 C   0  0  1  0  0  0
   -1.9231    2.0998   -1.9981 C   0  0  2  0  0  0
   -1.5582   -0.7185   -1.3312 C   0  0  1  0  0  0
   -2.9754    1.0130   -2.2282 C   0  0  2  0  0  0
    4.9907    0.7235   -3.6649 C   0  0
   -0.8446    2.1006    1.4810 C   0  0
   -0.5326    3.5541   -3.2198 C   0  0
   -4.9977    0.6910   -3.3799 C   0  0
   -2.4388   -1.1573   -0.1629 C   0  0
   -1.6373   -1.7712    0.8419 N   0  0
   -1.7850   -3.9454    0.0423 O   0  0
    2.1403    0.8488   -0.3765 O   0  0
   -2.3508   -0.2529   -2.4310 O   0  0
    0.5414    0.2874   -1.9472 O   0  0
   -1.7221    1.9057    0.3837 O   0  0
   -1.1471    2.2741   -3.1844 O   0  0
   -3.7530    1.3723   -3.3686 O   0  0
    1.9209   -3.1706    0.2125 I   0  0
   -0.9901   -4.7700    5.1713 H   0  0
    1.4811   -4.9305    5.0451 H   0  0
   -2.2817   -3.9439    3.2367 H   0  0
    2.6655   -4.2672    2.9952 H   0  0
    2.2843    0.2658   -3.6559 H   0  0
    4.4190    1.0156   -1.5614 H   0  0
   -0.1534    2.4570   -0.7793 H   0  0
    0.0027    0.0180    0.0046 H   0  0
   -2.4132    3.0486   -1.7811 H   0  0
   -1.0241   -1.6639   -1.6817 H   0  0
   -3.6386    0.9525   -1.3810 H   0  0
    5.4041   -0.2850   -3.7612 H   0  0
    5.8221    1.4205   -3.5196 H   0  0
    4.4897    0.9810   -4.6031 H   0  0
   -1.4274    2.2241    2.3971 H   0  0
   -0.2307    2.9874    1.3047 H   0  0
   -0.1977    1.2255    1.5787 H   0  0
    0.0515    3.6534   -4.1380 H   0  0
    0.1159    3.6722   -2.3481 H   0  0
   -1.3096    4.3220   -3.2001 H   0  0
   -5.5681    0.9872   -4.2637 H   0  0
   -5.5566    0.9363   -2.4733 H   0  0
   -4.8135   -0.3855   -3.4119 H   0  0
   -3.1676   -1.8706   -0.5253 H   0  0
   -2.9311   -0.2885    0.2533 H   0  0
   -1.2965   -1.1866    1.6111 H   0  0
  1  2  2  0
  1  3  1  0
  2  4  1  0
  3  5  2  0
  4  6  2  0
  5  6  1  0
  5  9  1  0
  6 29  1  0
  7  8  2  0
  7 10  1  0
  8 16  1  0
  9 21  1  0
  9 22  2  0
 10 23  2  0
 10 25  1  0
 11 12  1  0
 11 13  1  0
 11 26  1  0
 12 14  1  0
 12 25  1  0
 13 15  1  0
 13 27  1  0
 14 20  1  0
 14 24  1  0
 15 24  1  0
 15 28  1  0
 17 26  1  0
 18 27  1  0
 19 28  1  0
 20 21  1  0
  1 30  1  0
  2 31  1  0
  3 32  1  0
  4 33  1  0
  7 34  1  0
  8 35  1  0
 11 36  1  0
 12 37  1  0
 13 38  1  0
 14 39  1  0
 15 40  1  0
 16 41  1  0
 16 42  1  0
 16 43  1  0
 17 44  1  0
 17 45  1  0
 17 46  1  0
 18 47  1  0
 18 48  1  0
 18 49  1  0
 19 50  1  0
 19 51  1  0
 19 52  1  0
 20 53  1  0
 20 54  1  0
 21 55  1  0
M  END
> <Name>
BR020348

$$$$
BR020349
  SciTegic05062102053D

 58 59  0  0  1  0            999 V2000
    6.9025    0.6504   -5.6611 C   0  0
    5.5486    0.7887   -5.9666 C   0  0
    7.3107    0.5509   -4.3309 C   0  0
    4.6028    0.8275   -4.9421 C   0  0
    6.3649    0.5898   -3.3064 C   0  0
    5.0110    0.7281   -3.6119 C   0  0
    4.0124    0.7692   -2.5292 C   0  0
    2.7054    0.5170   -2.6891 C   0  0
    1.8017    0.5799   -1.5180 C   0  0
   -3.2053   -3.4735   -0.6380 C   0  0
   -0.9994    1.7402   -0.8321 C   0  0  1  0  0  0
   -0.4755    0.3023   -0.9404 C   0  0  1  0  0  0
   -1.9231    2.0998   -1.9981 C   0  0  2  0  0  0
   -1.5582   -0.7185   -1.3312 C   0  0  1  0  0  0
   -2.9754    1.0130   -2.2282 C   0  0  2  0  0  0
   -0.8446    2.1006    1.4810 C   0  0
   -0.5326    3.5541   -3.2198 C   0  0
   -4.9977    0.6910   -3.3799 C   0  0
   -4.4117   -4.2300   -1.1670 C   0  0
   -2.4388   -1.1573   -0.1629 C   0  0
   -4.1842   -5.7384   -1.1897 C   0  0
   -3.4137   -2.0911   -0.6172 N   0  0
    2.1395    0.8487   -0.3761 O   0  0
   -2.1717   -4.0262   -0.2713 O   0  0
   -2.3508   -0.2529   -2.4310 O   0  0
    0.5414    0.2874   -1.9472 O   0  0
   -1.7221    1.9057    0.3837 O   0  0
   -1.1471    2.2741   -3.1844 O   0  0
   -3.7530    1.3723   -3.3686 O   0  0
   -5.8910   -6.7484   -1.9805 I   0  0
    7.6387    0.6189   -6.4588 H   0  0
    5.2304    0.8650   -7.0023 H   0  0
    8.3647    0.4421   -4.0929 H   0  0
    3.5510    0.9358   -5.1960 H   0  0
    6.6988    0.5110   -2.2745 H   0  0
    4.4069    1.0052   -1.5434 H   0  0
    2.2742    0.2550   -3.6491 H   0  0
   -0.1534    2.4570   -0.7793 H   0  0
    0.0027    0.0180    0.0046 H   0  0
   -2.4132    3.0486   -1.7811 H   0  0
   -1.0241   -1.6639   -1.6817 H   0  0
   -3.6386    0.9525   -1.3810 H   0  0
   -1.4274    2.2241    2.3971 H   0  0
   -0.2307    2.9874    1.3047 H   0  0
   -0.1977    1.2255    1.5787 H   0  0
    0.0515    3.6534   -4.1380 H   0  0
    0.1159    3.6722   -2.3481 H   0  0
   -1.3096    4.3220   -3.2001 H   0  0
   -5.5681    0.9872   -4.2637 H   0  0
   -5.5566    0.9363   -2.4733 H   0  0
   -4.8135   -0.3855   -3.4119 H   0  0
   -4.6266   -3.8611   -2.1776 H   0  0
   -5.2715   -3.9830   -0.5320 H   0  0
   -2.9379   -0.2869    0.2427 H   0  0
   -1.8184   -1.6253    0.5898 H   0  0
   -3.9795   -6.1038   -0.1769 H   0  0
   -3.3038   -5.9772   -1.7974 H   0  0
   -4.3155   -1.7308   -0.9461 H   0  0
  1  2  1  0
  1  3  2  0
  2  4  2  0
  3  5  1  0
  4  6  1  0
  5  6  2  0
  6  7  1  0
  7  8  2  0
  8  9  1  0
  9 23  2  0
  9 26  1  0
 10 19  1  0
 10 22  1  0
 10 24  2  0
 11 12  1  0
 11 13  1  0
 11 27  1  0
 12 14  1  0
 12 26  1  0
 13 15  1  0
 13 28  1  0
 14 20  1  0
 14 25  1  0
 15 25  1  0
 15 29  1  0
 16 27  1  0
 17 28  1  0
 18 29  1  0
 19 21  1  0
 20 22  1  0
 21 30  1  0
  1 31  1  0
  2 32  1  0
  3 33  1  0
  4 34  1  0
  5 35  1  0
  7 36  1  0
  8 37  1  0
 11 38  1  0
 12 39  1  0
 13 40  1  0
 14 41  1  0
 15 42  1  0
 16 43  1  0
 16 44  1  0
 16 45  1  0
 17 46  1  0
 17 47  1  0
 17 48  1  0
 18 49  1  0
 18 50  1  0
 18 51  1  0
 19 52  1  0
 19 53  1  0
 20 54  1  0
 20 55  1  0
 21 56  1  0
 21 57  1  0
 22 58  1  0
M  END
> <Name>
BR020349

$$$$
BR020350
  SciTegic05062102053D

 51 51  0  0  1  0            999 V2000
    2.7044    0.5163   -2.6876 C   0  0
    4.0117    0.7658   -2.5376 C   0  0
    1.8016    0.5798   -1.5182 C   0  0
   -3.2053   -3.4735   -0.6380 C   0  0
   -0.9994    1.7402   -0.8321 C   0  0  1  0  0  0
   -0.4755    0.3023   -0.9404 C   0  0  1  0  0  0
   -1.9231    2.0998   -1.9981 C   0  0  2  0  0  0
   -1.5582   -0.7185   -1.3312 C   0  0  1  0  0  0
   -2.9754    1.0130   -2.2282 C   0  0  2  0  0  0
    4.9907    0.7235   -3.6649 C   0  0
   -0.8446    2.1006    1.4810 C   0  0
   -0.5326    3.5541   -3.2198 C   0  0
   -4.9977    0.6910   -3.3799 C   0  0
   -4.4117   -4.2300   -1.1670 C   0  0
   -2.4388   -1.1573   -0.1629 C   0  0
   -4.1842   -5.7384   -1.1897 C   0  0
   -3.4137   -2.0911   -0.6172 N   0  0
    2.1403    0.8488   -0.3765 O   0  0
   -2.1717   -4.0262   -0.2713 O   0  0
   -2.3508   -0.2529   -2.4310 O   0  0
    0.5414    0.2874   -1.9472 O   0  0
   -1.7221    1.9057    0.3837 O   0  0
   -1.1471    2.2741   -3.1844 O   0  0
   -3.7530    1.3723   -3.3686 O   0  0
   -5.8910   -6.7484   -1.9805 I   0  0
    2.2843    0.2658   -3.6559 H   0  0
    4.4190    1.0156   -1.5614 H   0  0
   -0.1534    2.4570   -0.7793 H   0  0
    0.0027    0.0180    0.0046 H   0  0
   -2.4132    3.0486   -1.7811 H   0  0
   -1.0241   -1.6639   -1.6817 H   0  0
   -3.6386    0.9525   -1.3810 H   0  0
    5.4041   -0.2850   -3.7612 H   0  0
    5.8221    1.4205   -3.5196 H   0  0
    4.4897    0.9810   -4.6031 H   0  0
   -1.4274    2.2241    2.3971 H   0  0
   -0.2307    2.9874    1.3047 H   0  0
   -0.1977    1.2255    1.5787 H   0  0
    0.0515    3.6534   -4.1380 H   0  0
    0.1159    3.6722   -2.3481 H   0  0
   -1.3096    4.3220   -3.2001 H   0  0
   -5.5681    0.9872   -4.2637 H   0  0
   -5.5566    0.9363   -2.4733 H   0  0
   -4.8135   -0.3855   -3.4119 H   0  0
   -4.6266   -3.8611   -2.1776 H   0  0
   -5.2715   -3.9830   -0.5320 H   0  0
   -2.9379   -0.2869    0.2427 H   0  0
   -1.8184   -1.6253    0.5898 H   0  0
   -3.9795   -6.1038   -0.1769 H   0  0
   -3.3038   -5.9772   -1.7974 H   0  0
   -4.3155   -1.7308   -0.9461 H   0  0
  1  2  2  0
  1  3  1  0
  2 10  1  0
  3 18  2  0
  3 21  1  0
  4 14  1  0
  4 17  1  0
  4 19  2  0
  5  6  1  0
  5  7  1  0
  5 22  1  0
  6  8  1  0
  6 21  1  0
  7  9  1  0
  7 23  1  0
  8 15  1  0
  8 20  1  0
  9 20  1  0
  9 24  1  0
 11 22  1  0
 12 23  1  0
 13 24  1  0
 14 16  1  0
 15 17  1  0
 16 25  1  0
  1 26  1  0
  2 27  1  0
  5 28  1  0
  6 29  1  0
  7 30  1  0
  8 31  1  0
  9 32  1  0
 10 33  1  0
 10 34  1  0
 10 35  1  0
 11 36  1  0
 11 37  1  0
 11 38  1  0
 12 39  1  0
 12 40  1  0
 12 41  1  0
 13 42  1  0
 13 43  1  0
 13 44  1  0
 14 45  1  0
 14 46  1  0
 15 47  1  0
 15 48  1  0
 16 49  1  0
 16 50  1  0
 17 51  1  0
M  END
> <Name>
BR020350

$$$$
BR020351
  SciTegic05062102053D

 43 43  0  0  1  0            999 V2000
    2.7044    0.5163   -2.6876 C   0  0
    4.0117    0.7658   -2.5376 C   0  0
    1.8016    0.5798   -1.5182 C   0  0
   -0.9994    1.7402   -0.8321 C   0  0  1  0  0  0
   -0.4755    0.3023   -0.9404 C   0  0  1  0  0  0
   -1.9231    2.0998   -1.9981 C   0  0  2  0  0  0
   -1.5582   -0.7185   -1.3312 C   0  0  1  0  0  0
   -2.9754    1.0130   -2.2282 C   0  0  2  0  0  0
    4.9907    0.7235   -3.6649 C   0  0
   -0.8446    2.1006    1.4810 C   0  0
   -0.5326    3.5541   -3.2198 C   0  0
   -4.9977    0.6910   -3.3799 C   0  0
   -2.4388   -1.1573   -0.1629 C   0  0
   -4.9375   -2.9928    0.9681 N   0  5
   -3.4163   -2.1228   -0.6528 N   0  0
   -4.2099   -2.5760    0.1948 N   0  3
    2.1403    0.8488   -0.3765 O   0  0
   -2.3508   -0.2529   -2.4310 O   0  0
    0.5414    0.2874   -1.9472 O   0  0
   -1.7221    1.9057    0.3837 O   0  0
   -1.1471    2.2741   -3.1844 O   0  0
   -3.7530    1.3723   -3.3686 O   0  0
    2.2843    0.2658   -3.6559 H   0  0
    4.4190    1.0156   -1.5614 H   0  0
   -0.1534    2.4570   -0.7793 H   0  0
    0.0027    0.0180    0.0046 H   0  0
   -2.4132    3.0486   -1.7811 H   0  0
   -1.0241   -1.6639   -1.6817 H   0  0
   -3.6386    0.9525   -1.3810 H   0  0
    5.4041   -0.2850   -3.7612 H   0  0
    5.8221    1.4205   -3.5196 H   0  0
    4.4897    0.9810   -4.6031 H   0  0
   -1.4274    2.2241    2.3971 H   0  0
   -0.2307    2.9874    1.3047 H   0  0
   -0.1977    1.2255    1.5787 H   0  0
    0.0515    3.6534   -4.1380 H   0  0
    0.1159    3.6722   -2.3481 H   0  0
   -1.3096    4.3220   -3.2001 H   0  0
   -5.5681    0.9872   -4.2637 H   0  0
   -5.5566    0.9363   -2.4733 H   0  0
   -4.8135   -0.3855   -3.4119 H   0  0
   -2.9501   -0.2914    0.2585 H   0  0
   -1.8222   -1.6134    0.6123 H   0  0
  1  2  2  0
  1  3  1  0
  2  9  1  0
  3 17  2  0
  3 19  1  0
  4  5  1  0
  4  6  1  0
  4 20  1  0
  5  7  1  0
  5 19  1  0
  6  8  1  0
  6 21  1  0
  7 13  1  0
  7 18  1  0
  8 18  1  0
  8 22  1  0
 10 20  1  0
 11 21  1  0
 12 22  1  0
 13 15  1  0
 14 16  2  0
 15 16  2  0
  1 23  1  0
  2 24  1  0
  4 25  1  0
  5 26  1  0
  6 27  1  0
  7 28  1  0
  8 29  1  0
  9 30  1  0
  9 31  1  0
  9 32  1  0
 10 33  1  0
 10 34  1  0
 10 35  1  0
 11 36  1  0
 11 37  1  0
 11 38  1  0
 12 39  1  0
 12 40  1  0
 12 41  1  0
 13 42  1  0
 13 43  1  0
M  CHG  2  14  -1  16   1
M  END
> <Name>
BR020351

$$$$
BR020352
  SciTegic05062102053D

 55 58  0  0  1  0            999 V2000
    8.1107    0.2433    3.5883 C   0  0
    6.9018    0.3703    4.2726 C   0  0
    8.1173    0.1419    2.1971 C   0  0
    5.6996    0.3957    3.5657 C   0  0
    6.9151    0.1673    1.4902 C   0  0
    5.7063    0.2942    2.1745 C   0  0
    4.4374    0.3209    1.4277 C   0  0
    3.2754    0.8055    1.8927 C   0  0
    0.3213   -3.0133    0.6725 C   0  0
   -0.3587   -2.3799    1.8619 C   0  0  1  0  0  0
   -1.0910   -1.0903    1.5387 C   0  0  2  0  0  0
   -1.0397    1.2611    1.4680 C   0  0  2  0  0  0
   -0.2098    0.0657    1.0720 C   0  0  1  0  0  0
   -1.7098    0.8153    2.7452 C   0  0  2  0  0  0
   -0.6413   -4.6304    1.9380 C   0  0
   -3.2560    1.7671    1.3668 C   0  0
   -0.1371   -5.3063    3.2067 C   0  0
   -1.6481   -5.5082    1.2054 C   0  0
   -4.4475    0.9586    0.8718 C   0  0
   -3.5327    3.2639    1.2831 C   0  0
    2.0141    0.8250    1.0901 C   0  0
    0.4805   -4.3739    1.0770 O   0  0
   -1.7712   -0.6206    2.7185 O   0  0
   -1.2805   -3.3898    2.2817 O   0  0
   -2.1185    1.4546    0.5538 O   0  0
   -2.9938    1.4283    2.7339 O   0  0
    1.0192    0.0857    1.7854 O   0  0
    9.0468    0.2248    4.1386 H   0  0
    6.8965    0.4505    5.3558 H   0  0
    9.0585    0.0443    1.6641 H   0  0
    4.7653    0.4951    4.1131 H   0  0
    6.9368    0.0872    0.4060 H   0  0
    4.4786   -0.0728    0.4145 H   0  0
    3.2115    1.2313    2.8905 H   0  0
   -0.3056   -2.9978   -0.2261 H   0  0
    1.2921   -2.5670    0.4415 H   0  0
    0.3557   -2.2223    2.6794 H   0  0
   -1.8656   -1.2930    0.7895 H   0  0
   -0.4868    2.1989    1.5799 H   0  0
    0.0000   -0.0001    0.0000 H   0  0
   -1.1611    1.1088    3.6453 H   0  0
    0.5807   -4.6609    3.7132 H   0  0
    0.3494   -6.2497    2.9586 H   0  0
   -0.9710   -5.5048    3.8803 H   0  0
   -1.9943   -5.0049    0.3026 H   0  0
   -2.5049   -5.7096    1.8486 H   0  0
   -1.1845   -6.4548    0.9270 H   0  0
   -4.2298   -0.1076    0.9397 H   0  0
   -4.6635    1.2093   -0.1672 H   0  0
   -5.3265    1.1788    1.4783 H   0  0
   -2.6685    3.8226    1.6417 H   0  0
   -4.3975    3.5171    1.8960 H   0  0
   -3.7347    3.5476    0.2505 H   0  0
    1.6658    1.8560    0.9737 H   0  0
    2.1467    0.3830    0.0975 H   0  0
  1  2  2  0
  1  3  1  0
  2  4  1  0
  3  5  2  0
  4  6  2  0
  5  6  1  0
  6  7  1  0
  7  8  2  0
  8 21  1  0
  9 10  1  0
  9 22  1  0
 10 11  1  0
 10 24  1  0
 11 13  1  0
 11 23  1  0
 12 13  1  0
 12 14  1  0
 12 25  1  0
 13 27  1  0
 14 23  1  0
 14 26  1  0
 15 17  1  0
 15 18  1  0
 15 22  1  0
 15 24  1  0
 16 19  1  0
 16 20  1  0
 16 25  1  0
 16 26  1  0
 21 27  1  0
  1 28  1  0
  2 29  1  0
  3 30  1  0
  4 31  1  0
  5 32  1  0
  7 33  1  0
  8 34  1  0
  9 35  1  0
  9 36  1  0
 10 37  1  0
 11 38  1  0
 12 39  1  0
 13 40  1  0
 14 41  1  0
 17 42  1  0
 17 43  1  0
 17 44  1  0
 18 45  1  0
 18 46  1  0
 18 47  1  0
 19 48  1  0
 19 49  1  0
 19 50  1  0
 20 51  1  0
 20 52  1  0
 20 53  1  0
 21 54  1  0
 21 55  1  0
M  END
> <Name>
BR020352

$$$$
BR020353
  SciTegic05062102053D

 82 86  0  0  1  0            999 V2000
    3.2981   -2.4951   -7.9436 C   0  0
    1.1255    3.1210   -7.0284 C   0  0
    4.0763   -5.6551   -0.0601 C   0  0
    5.5411   -0.5551    7.0867 C   0  0
    3.7718   -1.4742   -7.1197 C   0  0
    2.3042   -3.3587   -7.4828 C   0  0
    0.6114    1.8401   -6.8274 C   0  0
    1.0698    4.0640   -6.0020 C   0  0
    3.3613   -5.4732    1.1236 C   0  0
    4.5331   -4.5485   -0.7761 C   0  0
    4.7984   -1.6069    6.5503 C   0  0
    5.1930    0.7640    6.7958 C   0  0
    3.2518   -1.3168   -5.8350 C   0  0
    1.7842   -3.2013   -6.1981 C   0  0
    0.0414    1.5021   -5.6000 C   0  0
    0.4998    3.7260   -4.7746 C   0  0
    3.1029   -4.1847    1.5914 C   0  0
    4.2747   -3.2601   -0.3083 C   0  0
    3.7077   -1.3396    5.7229 C   0  0
    4.1023    1.0312    5.9684 C   0  0
    2.2580   -2.1804   -5.3742 C   0  0
   -0.0144    2.4450   -4.5736 C   0  0
    3.5596   -3.0781    0.8754 C   0  0
    3.3596   -0.0205    5.4320 C   0  0
    1.7083   -2.0146   -4.0171 C   0  0
    1.7894   -0.8878   -3.2953 C   0  0
   -0.6216    2.0850   -3.2663 C   0  0
    1.1864   -0.8421   -1.9439 C   0  0
    1.9514    0.1836    0.8896 C   0  0  1  0  0  0
    0.8918    0.6285   -0.1205 C   0  0  1  0  0  0
    1.5562    0.6052    2.3034 C   0  0  2  0  0  0
    0.5380    2.1106    0.0630 C   0  0  1  0  0  0
    1.1766    2.0855    2.3663 C   0  0  2  0  0  0
    2.0291    4.2445    2.7304 C   0  0
    3.2818   -1.6918    1.3779 C   0  0
    2.1866    0.2676    4.5418 C   0  0
   -0.6270    2.5360   -0.8266 C   0  0
   -0.1593    2.7845   -2.1488 N   0  0
   -1.4677    1.1958   -3.2224 O   0  0
    0.5995   -1.7633   -1.3985 O   0  0
    0.1510    2.3791    1.4155 O   0  0
    1.4072    0.4010   -1.4301 O   0  0
    2.0502   -1.2415    0.8372 O   0  0
    2.6319    0.3331    3.1946 O   0  0
    2.3050    2.9468    2.2268 O   0  0
    3.7020   -2.6169   -8.9443 H   0  0
    1.5693    3.3842   -7.9841 H   0  0
    4.2786   -6.6584   -0.4234 H   0  0
    6.3895   -0.7633    7.7320 H   0  0
    4.5449   -0.8009   -7.4786 H   0  0
    1.9344   -4.1529   -8.1247 H   0  0
    0.6548    1.1061   -7.6267 H   0  0
    1.4704    5.0613   -6.1584 H   0  0
    3.0065   -6.3347    1.6818 H   0  0
    5.0908   -4.6898   -1.6971 H   0  0
    5.0686   -2.6340    6.7776 H   0  0
    5.7704    1.5831    7.2141 H   0  0
    3.6313   -0.5163   -5.2043 H   0  0
    1.0098   -3.8825   -5.8534 H   0  0
   -0.3562    0.5010   -5.4541 H   0  0
    0.4616    4.4689   -3.9820 H   0  0
    2.5448   -4.0526    2.5146 H   0  0
    4.6344   -2.4038   -0.8728 H   0  0
    3.1349   -2.1655    5.3093 H   0  0
    3.8386    2.0621    5.7471 H   0  0
    1.1916   -2.8841   -3.6169 H   0  0
    2.2746    0.0089   -3.6649 H   0  0
    2.9381    0.5738    0.6187 H   0  0
    0.0000    0.0003    0.0011 H   0  0
    0.7036   -0.0060    2.6232 H   0  0
    1.3968    2.7418   -0.2005 H   0  0
    0.7465    2.2944    3.3737 H   0  0
    2.9110    4.8783    2.6092 H   0  0
    1.7588    4.1763    3.7872 H   0  0
    1.1951    4.6734    2.1700 H   0  0
    3.2187   -1.6767    2.4713 H   0  0
    4.0791   -1.0035    1.0774 H   0  0
    1.4266   -0.5163    4.6290 H   0  0
    1.7194    1.2207    4.8124 H   0  0
   -1.0598    3.4422   -0.4233 H   0  0
   -1.3610    1.7415   -0.8500 H   0  0
    0.5948    3.4666   -2.2735 H   0  0
  1  5  1  0
  1  6  2  0
  2  7  2  0
  2  8  1  0
  3  9  1  0
  3 10  2  0
  4 11  1  0
  4 12  2  0
  5 13  2  0
  6 14  1  0
  7 15  1  0
  8 16  2  0
  9 17  2  0
 10 18  1  0
 11 19  2  0
 12 20  1  0
 13 21  1  0
 14 21  2  0
 15 22  2  0
 16 22  1  0
 17 23  1  0
 18 23  2  0
 19 24  1  0
 20 24  2  0
 21 25  1  0
 22 27  1  0
 23 35  1  0
 24 36  1  0
 25 26  2  0
 26 28  1  0
 27 38  1  0
 27 39  2  0
 28 40  2  0
 28 42  1  0
 29 30  1  0
 29 31  1  0
 29 43  1  0
 30 32  1  0
 30 42  1  0
 31 33  1  0
 31 44  1  0
 32 37  1  0
 32 41  1  0
 33 41  1  0
 33 45  1  0
 34 45  1  0
 35 43  1  0
 36 44  1  0
 37 38  1  0
  1 46  1  0
  2 47  1  0
  3 48  1  0
  4 49  1  0
  5 50  1  0
  6 51  1  0
  7 52  1  0
  8 53  1  0
  9 54  1  0
 10 55  1  0
 11 56  1  0
 12 57  1  0
 13 58  1  0
 14 59  1  0
 15 60  1  0
 16 61  1  0
 17 62  1  0
 18 63  1  0
 19 64  1  0
 20 65  1  0
 25 66  1  0
 26 67  1  0
 29 68  1  0
 30 69  1  0
 31 70  1  0
 32 71  1  0
 33 72  1  0
 34 73  1  0
 34 74  1  0
 34 75  1  0
 35 76  1  0
 35 77  1  0
 36 78  1  0
 36 79  1  0
 37 80  1  0
 37 81  1  0
 38 82  1  0
M  END
> <Name>
BR020353

$$$$
BR020354
  SciTegic05062102053D

 75 78  0  0  1  0            999 V2000
   -5.8966   -1.1466   -0.0866 C   0  0
    4.0763   -5.6551   -0.0601 C   0  0
    5.5411   -0.5551    7.0867 C   0  0
   -5.7634   -0.8217   -1.4365 C   0  0
   -4.8973   -0.7893    0.8187 C   0  0
    3.3613   -5.4732    1.1236 C   0  0
    4.5331   -4.5485   -0.7761 C   0  0
    4.7984   -1.6069    6.5503 C   0  0
    5.1930    0.7640    6.7958 C   0  0
   -4.6308   -0.1396   -1.8812 C   0  0
   -3.7647   -0.1072    0.3740 C   0  0
    3.1029   -4.1847    1.5914 C   0  0
    4.2747   -3.2601   -0.3083 C   0  0
    3.7077   -1.3396    5.7229 C   0  0
    4.1023    1.0312    5.9684 C   0  0
   -3.6315    0.2177   -0.9760 C   0  0
    3.5596   -3.0781    0.8754 C   0  0
    3.3596   -0.0205    5.4320 C   0  0
    1.7881   -0.8875   -3.2940 C   0  0
    1.7114   -2.0085   -4.0230 C   0  0
   -2.4252    0.9441   -1.4497 C   0  0
    1.1865   -0.8420   -1.9439 C   0  0
    1.9514    0.1836    0.8896 C   0  0  1  0  0  0
    0.8918    0.6285   -0.1205 C   0  0  1  0  0  0
    1.5562    0.6052    2.3034 C   0  0  2  0  0  0
    0.5380    2.1106    0.0630 C   0  0  1  0  0  0
    1.1766    2.0855    2.3663 C   0  0  2  0  0  0
    2.2917   -2.1386   -5.3931 C   0  0
    2.0291    4.2445    2.7304 C   0  0
    3.2818   -1.6918    1.3779 C   0  0
    2.1866    0.2676    4.5418 C   0  0
   -0.6270    2.5360   -0.8266 C   0  0
   -1.7801    1.7593   -0.5164 N   0  0
   -2.0679    0.8161   -2.6178 O   0  0
    0.5997   -1.7637   -1.3993 O   0  0
    0.1510    2.3791    1.4155 O   0  0
    1.4072    0.4010   -1.4301 O   0  0
    2.0502   -1.2415    0.8372 O   0  0
    2.6319    0.3331    3.1946 O   0  0
    2.3050    2.9468    2.2268 O   0  0
   -6.7784   -1.6777    0.2596 H   0  0
    4.2786   -6.6584   -0.4234 H   0  0
    6.3895   -0.7633    7.7320 H   0  0
   -6.5414   -1.1001   -2.1413 H   0  0
   -5.0011   -1.0420    1.8698 H   0  0
    3.0065   -6.3347    1.6818 H   0  0
    5.0908   -4.6898   -1.6971 H   0  0
    5.0686   -2.6340    6.7776 H   0  0
    5.7704    1.5831    7.2141 H   0  0
   -4.5372    0.1087   -2.9353 H   0  0
   -2.9923    0.1660    1.0883 H   0  0
    2.5448   -4.0526    2.5146 H   0  0
    4.6344   -2.4038   -0.8728 H   0  0
    3.1349   -2.1655    5.3093 H   0  0
    3.8386    2.0621    5.7471 H   0  0
    2.2858   -0.0006   -3.6716 H   0  0
    1.2095   -2.8896   -3.6319 H   0  0
    2.9381    0.5738    0.6187 H   0  0
    0.0000    0.0003    0.0011 H   0  0
    0.7036   -0.0060    2.6232 H   0  0
    1.3968    2.7418   -0.2005 H   0  0
    0.7465    2.2944    3.3737 H   0  0
    1.5487   -1.8460   -6.1412 H   0  0
    2.6126   -3.1617   -5.6129 H   0  0
    3.1595   -1.4797   -5.4941 H   0  0
    2.9110    4.8783    2.6092 H   0  0
    1.7588    4.1763    3.7872 H   0  0
    1.1951    4.6734    2.1700 H   0  0
    3.2187   -1.6767    2.4713 H   0  0
    4.0791   -1.0035    1.0774 H   0  0
    1.4266   -0.5163    4.6290 H   0  0
    1.7194    1.2207    4.8124 H   0  0
   -0.3527    2.3730   -1.8607 H   0  0
   -0.8417    3.5816   -0.6501 H   0  0
   -2.1873    1.8527    0.4189 H   0  0
  1  4  2  0
  1  5  1  0
  2  6  1  0
  2  7  2  0
  3  8  1  0
  3  9  2  0
  4 10  1  0
  5 11  2  0
  6 12  2  0
  7 13  1  0
  8 14  2  0
  9 15  1  0
 10 16  2  0
 11 16  1  0
 12 17  1  0
 13 17  2  0
 14 18  1  0
 15 18  2  0
 16 21  1  0
 17 30  1  0
 18 31  1  0
 19 20  2  0
 19 22  1  0
 20 28  1  0
 21 33  1  0
 21 34  2  0
 22 35  2  0
 22 37  1  0
 23 24  1  0
 23 25  1  0
 23 38  1  0
 24 26  1  0
 24 37  1  0
 25 27  1  0
 25 39  1  0
 26 32  1  0
 26 36  1  0
 27 36  1  0
 27 40  1  0
 29 40  1  0
 30 38  1  0
 31 39  1  0
 32 33  1  0
  1 41  1  0
  2 42  1  0
  3 43  1  0
  4 44  1  0
  5 45  1  0
  6 46  1  0
  7 47  1  0
  8 48  1  0
  9 49  1  0
 10 50  1  0
 11 51  1  0
 12 52  1  0
 13 53  1  0
 14 54  1  0
 15 55  1  0
 19 56  1  0
 20 57  1  0
 23 58  1  0
 24 59  1  0
 25 60  1  0
 26 61  1  0
 27 62  1  0
 28 63  1  0
 28 64  1  0
 28 65  1  0
 29 66  1  0
 29 67  1  0
 29 68  1  0
 30 69  1  0
 30 70  1  0
 31 71  1  0
 31 72  1  0
 32 73  1  0
 32 74  1  0
 33 75  1  0
M  END
> <Name>
BR020354

$$$$
BR020355
  SciTegic05062102053D

 62 64  0  0  1  0            999 V2000
    6.9025    0.6504   -5.6611 C   0  0
   -6.3851   -5.8834   -2.1547 C   0  0
    5.5486    0.7887   -5.9666 C   0  0
    7.3107    0.5509   -4.3309 C   0  0
   -5.0681   -6.3358   -2.2358 C   0  0
   -6.6625   -4.6440   -1.5780 C   0  0
    4.6028    0.8275   -4.9421 C   0  0
    6.3649    0.5898   -3.3064 C   0  0
   -4.0286   -5.5489   -1.7401 C   0  0
   -5.6230   -3.8571   -1.0822 C   0  0
    5.0110    0.7281   -3.6119 C   0  0
   -4.3060   -4.3095   -1.1633 C   0  0
    4.0124    0.7692   -2.5292 C   0  0
    2.7054    0.5170   -2.6891 C   0  0
   -3.1988   -3.4715   -0.6352 C   0  0
    1.8017    0.5799   -1.5180 C   0  0
   -0.9994    1.7402   -0.8321 C   0  0  1  0  0  0
   -0.4755    0.3023   -0.9404 C   0  0  1  0  0  0
   -1.9231    2.0998   -1.9981 C   0  0  2  0  0  0
   -1.5582   -0.7185   -1.3312 C   0  0  1  0  0  0
   -2.9754    1.0130   -2.2282 C   0  0  2  0  0  0
   -0.8446    2.1006    1.4810 C   0  0
   -0.5326    3.5541   -3.2198 C   0  0
   -4.9977    0.6910   -3.3799 C   0  0
   -2.4388   -1.1573   -0.1629 C   0  0
   -3.4137   -2.0911   -0.6172 N   0  0
   -2.1601   -4.0129   -0.2657 O   0  0
    2.1395    0.8487   -0.3761 O   0  0
   -2.3508   -0.2529   -2.4310 O   0  0
    0.5414    0.2874   -1.9472 O   0  0
   -1.7221    1.9057    0.3837 O   0  0
   -1.1471    2.2741   -3.1844 O   0  0
   -3.7530    1.3723   -3.3686 O   0  0
    7.6387    0.6189   -6.4588 H   0  0
   -7.1944   -6.4962   -2.5407 H   0  0
    5.2304    0.8650   -7.0023 H   0  0
    8.3647    0.4421   -4.0929 H   0  0
   -4.8523   -7.3010   -2.6848 H   0  0
   -7.6879   -4.2916   -1.5151 H   0  0
    3.5510    0.9358   -5.1960 H   0  0
    6.6988    0.5110   -2.2745 H   0  0
   -3.0060   -5.9112   -1.8084 H   0  0
   -5.8509   -2.8931   -0.6348 H   0  0
    4.4069    1.0052   -1.5434 H   0  0
    2.2742    0.2550   -3.6491 H   0  0
   -0.1534    2.4570   -0.7793 H   0  0
    0.0027    0.0180    0.0046 H   0  0
   -2.4132    3.0486   -1.7811 H   0  0
   -1.0241   -1.6639   -1.6817 H   0  0
   -3.6386    0.9525   -1.3810 H   0  0
   -1.4274    2.2241    2.3971 H   0  0
   -0.2307    2.9874    1.3047 H   0  0
   -0.1977    1.2255    1.5787 H   0  0
    0.0515    3.6534   -4.1380 H   0  0
    0.1159    3.6722   -2.3481 H   0  0
   -1.3096    4.3220   -3.2001 H   0  0
   -5.5681    0.9872   -4.2637 H   0  0
   -5.5566    0.9363   -2.4733 H   0  0
   -4.8135   -0.3855   -3.4119 H   0  0
   -2.9379   -0.2869    0.2427 H   0  0
   -1.8184   -1.6253    0.5898 H   0  0
   -4.2887   -1.7251   -1.0043 H   0  0
  1  3  1  0
  1  4  2  0
  2  5  2  0
  2  6  1  0
  3  7  2  0
  4  8  1  0
  5  9  1  0
  6 10  2  0
  7 11  1  0
  8 11  2  0
  9 12  2  0
 10 12  1  0
 11 13  1  0
 12 15  1  0
 13 14  2  0
 14 16  1  0
 15 26  1  0
 15 27  2  0
 16 28  2  0
 16 30  1  0
 17 18  1  0
 17 19  1  0
 17 31  1  0
 18 20  1  0
 18 30  1  0
 19 21  1  0
 19 32  1  0
 20 25  1  0
 20 29  1  0
 21 29  1  0
 21 33  1  0
 22 31  1  0
 23 32  1  0
 24 33  1  0
 25 26  1  0
  1 34  1  0
  2 35  1  0
  3 36  1  0
  4 37  1  0
  5 38  1  0
  6 39  1  0
  7 40  1  0
  8 41  1  0
  9 42  1  0
 10 43  1  0
 13 44  1  0
 14 45  1  0
 17 46  1  0
 18 47  1  0
 19 48  1  0
 20 49  1  0
 21 50  1  0
 22 51  1  0
 22 52  1  0
 22 53  1  0
 23 54  1  0
 23 55  1  0
 23 56  1  0
 24 57  1  0
 24 58  1  0
 24 59  1  0
 25 60  1  0
 25 61  1  0
 26 62  1  0
M  END
> <Name>
BR020355

$$$$
BR020356
  SciTegic05062102053D

 55 56  0  0  1  0            999 V2000
   -6.3851   -5.8834   -2.1547 C   0  0
   -5.0681   -6.3358   -2.2358 C   0  0
   -6.6625   -4.6440   -1.5780 C   0  0
   -4.0286   -5.5489   -1.7401 C   0  0
   -5.6230   -3.8571   -1.0822 C   0  0
   -4.3060   -4.3095   -1.1633 C   0  0
    2.7044    0.5163   -2.6876 C   0  0
    4.0117    0.7658   -2.5376 C   0  0
   -3.1988   -3.4715   -0.6352 C   0  0
    1.8016    0.5798   -1.5182 C   0  0
   -0.9994    1.7402   -0.8321 C   0  0  1  0  0  0
   -0.4755    0.3023   -0.9404 C   0  0  1  0  0  0
   -1.9231    2.0998   -1.9981 C   0  0  2  0  0  0
   -1.5582   -0.7185   -1.3312 C   0  0  1  0  0  0
   -2.9754    1.0130   -2.2282 C   0  0  2  0  0  0
    4.9907    0.7235   -3.6649 C   0  0
   -0.8446    2.1006    1.4810 C   0  0
   -0.5326    3.5541   -3.2198 C   0  0
   -4.9977    0.6910   -3.3799 C   0  0
   -2.4388   -1.1573   -0.1629 C   0  0
   -3.4137   -2.0911   -0.6172 N   0  0
   -2.1601   -4.0129   -0.2657 O   0  0
    2.1403    0.8488   -0.3765 O   0  0
   -2.3508   -0.2529   -2.4310 O   0  0
    0.5414    0.2874   -1.9472 O   0  0
   -1.7221    1.9057    0.3837 O   0  0
   -1.1471    2.2741   -3.1844 O   0  0
   -3.7530    1.3723   -3.3686 O   0  0
   -7.1944   -6.4962   -2.5407 H   0  0
   -4.8523   -7.3010   -2.6848 H   0  0
   -7.6879   -4.2916   -1.5151 H   0  0
   -3.0060   -5.9112   -1.8084 H   0  0
   -5.8509   -2.8931   -0.6348 H   0  0
    2.2843    0.2658   -3.6559 H   0  0
    4.4190    1.0156   -1.5614 H   0  0
   -0.1534    2.4570   -0.7793 H   0  0
    0.0027    0.0180    0.0046 H   0  0
   -2.4132    3.0486   -1.7811 H   0  0
   -1.0241   -1.6639   -1.6817 H   0  0
   -3.6386    0.9525   -1.3810 H   0  0
    5.4041   -0.2850   -3.7612 H   0  0
    5.8221    1.4205   -3.5196 H   0  0
    4.4897    0.9810   -4.6031 H   0  0
   -1.4274    2.2241    2.3971 H   0  0
   -0.2307    2.9874    1.3047 H   0  0
   -0.1977    1.2255    1.5787 H   0  0
    0.0515    3.6534   -4.1380 H   0  0
    0.1159    3.6722   -2.3481 H   0  0
   -1.3096    4.3220   -3.2001 H   0  0
   -5.5681    0.9872   -4.2637 H   0  0
   -5.5566    0.9363   -2.4733 H   0  0
   -4.8135   -0.3855   -3.4119 H   0  0
   -2.9379   -0.2869    0.2427 H   0  0
   -1.8184   -1.6253    0.5898 H   0  0
   -4.2887   -1.7251   -1.0043 H   0  0
  1  2  2  0
  1  3  1  0
  2  4  1  0
  3  5  2  0
  4  6  2  0
  5  6  1  0
  6  9  1  0
  7  8  2  0
  7 10  1  0
  8 16  1  0
  9 21  1  0
  9 22  2  0
 10 23  2  0
 10 25  1  0
 11 12  1  0
 11 13  1  0
 11 26  1  0
 12 14  1  0
 12 25  1  0
 13 15  1  0
 13 27  1  0
 14 20  1  0
 14 24  1  0
 15 24  1  0
 15 28  1  0
 17 26  1  0
 18 27  1  0
 19 28  1  0
 20 21  1  0
  1 29  1  0
  2 30  1  0
  3 31  1  0
  4 32  1  0
  5 33  1  0
  7 34  1  0
  8 35  1  0
 11 36  1  0
 12 37  1  0
 13 38  1  0
 14 39  1  0
 15 40  1  0
 16 41  1  0
 16 42  1  0
 16 43  1  0
 17 44  1  0
 17 45  1  0
 17 46  1  0
 18 47  1  0
 18 48  1  0
 18 49  1  0
 19 50  1  0
 19 51  1  0
 19 52  1  0
 20 53  1  0
 20 54  1  0
 21 55  1  0
M  END
> <Name>
BR020356

$$$$
BR020357
  SciTegic05062102053D

 58 59  0  0  1  0            999 V2000
    6.9025    0.6504   -5.6611 C   0  0
    5.5486    0.7887   -5.9666 C   0  0
    7.3107    0.5509   -4.3309 C   0  0
    4.6028    0.8275   -4.9421 C   0  0
    6.3649    0.5898   -3.3064 C   0  0
    5.0110    0.7281   -3.6119 C   0  0
    4.0124    0.7692   -2.5292 C   0  0
    2.7054    0.5170   -2.6891 C   0  0
    1.8017    0.5799   -1.5180 C   0  0
   -3.2143   -3.4753   -0.6416 C   0  0
   -0.9994    1.7402   -0.8321 C   0  0  1  0  0  0
   -0.4755    0.3023   -0.9404 C   0  0  1  0  0  0
   -1.9231    2.0998   -1.9981 C   0  0  2  0  0  0
   -1.5582   -0.7185   -1.3312 C   0  0  1  0  0  0
   -2.9754    1.0130   -2.2282 C   0  0  2  0  0  0
   -4.2051   -5.7215   -1.2341 C   0  0
   -0.8446    2.1006    1.4810 C   0  0
   -0.5326    3.5541   -3.2198 C   0  0
   -4.9977    0.6910   -3.3799 C   0  0
   -4.4252   -4.2209   -1.1715 C   0  0
   -2.4388   -1.1573   -0.1629 C   0  0
   -3.4137   -2.0911   -0.6172 N   0  0
    2.1395    0.8487   -0.3761 O   0  0
   -2.1852   -4.0379   -0.2775 O   0  0
   -2.3508   -0.2529   -2.4310 O   0  0
    0.5414    0.2874   -1.9472 O   0  0
   -1.7221    1.9057    0.3837 O   0  0
   -1.1471    2.2741   -3.1844 O   0  0
   -3.7530    1.3723   -3.3686 O   0  0
    7.6387    0.6189   -6.4588 H   0  0
    5.2304    0.8650   -7.0023 H   0  0
    8.3647    0.4421   -4.0929 H   0  0
    3.5510    0.9358   -5.1960 H   0  0
    6.6988    0.5110   -2.2745 H   0  0
    4.4069    1.0052   -1.5434 H   0  0
    2.2742    0.2550   -3.6491 H   0  0
   -0.1534    2.4570   -0.7793 H   0  0
    0.0027    0.0180    0.0046 H   0  0
   -2.4132    3.0486   -1.7811 H   0  0
   -1.0241   -1.6639   -1.6817 H   0  0
   -3.6386    0.9525   -1.3810 H   0  0
   -3.3553   -5.9679   -1.8794 H   0  0
   -4.0023   -6.1190   -0.2350 H   0  0
   -5.0881   -6.2322   -1.6322 H   0  0
   -1.4274    2.2241    2.3971 H   0  0
   -0.2307    2.9874    1.3047 H   0  0
   -0.1977    1.2255    1.5787 H   0  0
    0.0515    3.6534   -4.1380 H   0  0
    0.1159    3.6722   -2.3481 H   0  0
   -1.3096    4.3220   -3.2001 H   0  0
   -5.5681    0.9872   -4.2637 H   0  0
   -5.5566    0.9363   -2.4733 H   0  0
   -4.8135   -0.3855   -3.4119 H   0  0
   -5.2794   -4.0020   -0.5207 H   0  0
   -4.6561   -3.8416   -2.1733 H   0  0
   -2.9379   -0.2869    0.2427 H   0  0
   -1.8184   -1.6253    0.5898 H   0  0
   -4.3146   -1.7273   -0.9455 H   0  0
  1  2  1  0
  1  3  2  0
  2  4  2  0
  3  5  1  0
  4  6  1  0
  5  6  2  0
  6  7  1  0
  7  8  2  0
  8  9  1  0
  9 23  2  0
  9 26  1  0
 10 20  1  0
 10 22  1  0
 10 24  2  0
 11 12  1  0
 11 13  1  0
 11 27  1  0
 12 14  1  0
 12 26  1  0
 13 15  1  0
 13 28  1  0
 14 21  1  0
 14 25  1  0
 15 25  1  0
 15 29  1  0
 16 20  1  0
 17 27  1  0
 18 28  1  0
 19 29  1  0
 21 22  1  0
  1 30  1  0
  2 31  1  0
  3 32  1  0
  4 33  1  0
  5 34  1  0
  7 35  1  0
  8 36  1  0
 11 37  1  0
 12 38  1  0
 13 39  1  0
 14 40  1  0
 15 41  1  0
 16 42  1  0
 16 43  1  0
 16 44  1  0
 17 45  1  0
 17 46  1  0
 17 47  1  0
 18 48  1  0
 18 49  1  0
 18 50  1  0
 19 51  1  0
 19 52  1  0
 19 53  1  0
 20 54  1  0
 20 55  1  0
 21 56  1  0
 21 57  1  0
 22 58  1  0
M  END
> <Name>
BR020357

$$$$
BR020358
  SciTegic05062102053D

 51 51  0  0  1  0            999 V2000
    2.7044    0.5163   -2.6876 C   0  0
    4.0117    0.7658   -2.5376 C   0  0
    1.8016    0.5798   -1.5182 C   0  0
   -3.2143   -3.4753   -0.6416 C   0  0
   -0.9994    1.7402   -0.8321 C   0  0  1  0  0  0
   -0.4755    0.3023   -0.9404 C   0  0  1  0  0  0
   -1.9231    2.0998   -1.9981 C   0  0  2  0  0  0
   -1.5582   -0.7185   -1.3312 C   0  0  1  0  0  0
   -2.9754    1.0130   -2.2282 C   0  0  2  0  0  0
    4.9907    0.7235   -3.6649 C   0  0
   -4.2051   -5.7215   -1.2341 C   0  0
   -0.8446    2.1006    1.4810 C   0  0
   -0.5326    3.5541   -3.2198 C   0  0
   -4.9977    0.6910   -3.3799 C   0  0
   -4.4252   -4.2209   -1.1715 C   0  0
   -2.4388   -1.1573   -0.1629 C   0  0
   -3.4137   -2.0911   -0.6172 N   0  0
    2.1403    0.8488   -0.3765 O   0  0
   -2.1852   -4.0379   -0.2775 O   0  0
   -2.3508   -0.2529   -2.4310 O   0  0
    0.5414    0.2874   -1.9472 O   0  0
   -1.7221    1.9057    0.3837 O   0  0
   -1.1471    2.2741   -3.1844 O   0  0
   -3.7530    1.3723   -3.3686 O   0  0
    2.2843    0.2658   -3.6559 H   0  0
    4.4190    1.0156   -1.5614 H   0  0
   -0.1534    2.4570   -0.7793 H   0  0
    0.0027    0.0180    0.0046 H   0  0
   -2.4132    3.0486   -1.7811 H   0  0
   -1.0241   -1.6639   -1.6817 H   0  0
   -3.6386    0.9525   -1.3810 H   0  0
    5.4041   -0.2850   -3.7612 H   0  0
    5.8221    1.4205   -3.5196 H   0  0
    4.4897    0.9810   -4.6031 H   0  0
   -3.3553   -5.9679   -1.8794 H   0  0
   -4.0023   -6.1190   -0.2350 H   0  0
   -5.0881   -6.2322   -1.6322 H   0  0
   -1.4274    2.2241    2.3971 H   0  0
   -0.2307    2.9874    1.3047 H   0  0
   -0.1977    1.2255    1.5787 H   0  0
    0.0515    3.6534   -4.1380 H   0  0
    0.1159    3.6722   -2.3481 H   0  0
   -1.3096    4.3220   -3.2001 H   0  0
   -5.5681    0.9872   -4.2637 H   0  0
   -5.5566    0.9363   -2.4733 H   0  0
   -4.8135   -0.3855   -3.4119 H   0  0
   -5.2794   -4.0020   -0.5207 H   0  0
   -4.6561   -3.8416   -2.1733 H   0  0
   -2.9379   -0.2869    0.2427 H   0  0
   -1.8184   -1.6253    0.5898 H   0  0
   -4.3146   -1.7273   -0.9455 H   0  0
  1  2  2  0
  1  3  1  0
  2 10  1  0
  3 18  2  0
  3 21  1  0
  4 15  1  0
  4 17  1  0
  4 19  2  0
  5  6  1  0
  5  7  1  0
  5 22  1  0
  6  8  1  0
  6 21  1  0
  7  9  1  0
  7 23  1  0
  8 16  1  0
  8 20  1  0
  9 20  1  0
  9 24  1  0
 11 15  1  0
 12 22  1  0
 13 23  1  0
 14 24  1  0
 16 17  1  0
  1 25  1  0
  2 26  1  0
  5 27  1  0
  6 28  1  0
  7 29  1  0
  8 30  1  0
  9 31  1  0
 10 32  1  0
 10 33  1  0
 10 34  1  0
 11 35  1  0
 11 36  1  0
 11 37  1  0
 12 38  1  0
 12 39  1  0
 12 40  1  0
 13 41  1  0
 13 42  1  0
 13 43  1  0
 14 44  1  0
 14 45  1  0
 14 46  1  0
 15 47  1  0
 15 48  1  0
 16 49  1  0
 16 50  1  0
 17 51  1  0
M  END
> <Name>
BR020358

$$$$
BR020359
  SciTegic05062102053D

 36 38  0  0  0  0            999 V2000
   -0.5145    2.6206    1.6570 C   0  0
    4.4765   -8.0493    1.4686 C   0  0
    0.2249    2.6902    0.4764 C   0  0
   -1.0449    1.4007    2.0769 C   0  0
    3.1447   -8.3706    1.2066 C   0  0
    4.9995   -6.8325    1.0310 C   0  0
    0.4340    1.5400   -0.2845 C   0  0
   -0.8358    0.2505    1.3161 C   0  0
    2.3359   -7.4751    0.5069 C   0  0
    4.1907   -5.9370    0.3313 C   0  0
   -0.0963    0.3200    0.1354 C   0  0
    2.8589   -6.2582    0.0693 C   0  0
    0.9092   -3.1697   -1.0473 C   0  0
    0.7104   -1.9718   -0.1988 C   0  0
    1.7762   -4.0835   -0.2682 C   0  0
    0.1183   -0.8630   -0.6466 C   0  0
    2.0277   -5.3371   -0.6503 C   0  0
    1.2928   -2.2163    1.1581 C   0  0
    2.2575   -3.3872    0.9663 C   0  0
    0.4534   -3.3632   -2.1574 O   0  0
   -0.6762    3.5159    2.2500 H   0  0
    5.1058   -8.7460    2.0145 H   0  0
    0.6390    3.6398    0.1498 H   0  0
   -1.6197    1.3461    2.9968 H   0  0
    2.7369   -9.3175    1.5483 H   0  0
    6.0361   -6.5817    1.2359 H   0  0
    1.0125    1.6101   -1.2026 H   0  0
   -1.2557   -0.6931    1.6566 H   0  0
    1.2996   -7.7397    0.3102 H   0  0
    4.6130   -4.9924   -0.0033 H   0  0
   -0.2521   -0.8673   -1.6718 H   0  0
    1.5913   -5.6756   -1.5901 H   0  0
    1.8120   -1.3393    1.5579 H   0  0
    0.4951   -2.4960    1.8563 H   0  0
    2.2627   -4.0412    1.8438 H   0  0
    3.2760   -3.0137    0.8052 H   0  0
  1  3  2  0
  1  4  1  0
  2  5  2  0
  2  6  1  0
  3  7  1  0
  4  8  2  0
  5  9  1  0
  6 10  2  0
  7 11  2  0
  8 11  1  0
  9 12  2  0
 10 12  1  0
 11 16  1  0
 12 17  1  0
 13 14  1  0
 13 15  1  0
 13 20  2  0
 14 16  2  0
 14 18  1  0
 15 17  2  0
 15 19  1  0
 18 19  1  0
  1 21  1  0
  2 22  1  0
  3 23  1  0
  4 24  1  0
  5 25  1  0
  6 26  1  0
  7 27  1  0
  8 28  1  0
  9 29  1  0
 10 30  1  0
 16 31  1  0
 17 32  1  0
 18 33  1  0
 18 34  1  0
 19 35  1  0
 19 36  1  0
M  END
> <Name>
BR020359

$$$$
BR020360
  SciTegic05062102053D

 39 41  0  0  0  0            999 V2000
    1.9598   -0.8518   -4.2394 C   0  0
    2.9968   -3.4363    7.9061 C   0  0
    2.6563   -0.0654   -3.3218 C   0  0
    0.8640   -1.6067   -3.8209 C   0  0
    1.8480   -4.0139    7.3656 C   0  0
    3.5450   -2.2949    7.3210 C   0  0
    2.2570   -0.0339   -1.9856 C   0  0
    0.4647   -1.5752   -2.4848 C   0  0
    1.2473   -3.4501    6.2400 C   0  0
    2.9443   -1.7310    6.1955 C   0  0
    1.1612   -0.7888   -1.5671 C   0  0
    1.7955   -2.3087    5.6549 C   0  0
    0.6933   -1.4041    2.1433 C   0  0
    1.2294   -1.5699    0.7568 C   0  0
    1.4567   -2.0825    3.2363 C   0  0
    0.7514   -0.7570   -0.1971 C   0  0
    1.1799   -1.7301    4.5006 C   0  0
    2.2828   -2.5994    0.4716 C   0  0
    2.5082   -3.1002    2.9056 C   0  0
    3.2601   -2.7439    1.6304 C   0  0
   -0.3168   -0.7444    2.3722 O   0  0
    2.2699   -0.8754   -5.2800 H   0  0
    3.4638   -3.8746    8.7832 H   0  0
    3.5089    0.5234   -3.6476 H   0  0
    0.3209   -2.2181   -4.5356 H   0  0
    1.4203   -4.9021    7.8217 H   0  0
    4.4388   -1.8443    7.7424 H   0  0
    2.8100    0.5839   -1.2820 H   0  0
   -0.3914   -2.1692   -2.1740 H   0  0
    0.3521   -3.9118    5.8301 H   0  0
    3.3835   -0.8412    5.7508 H   0  0
    0.0235   -0.0086    0.1052 H   0  0
    0.4159   -0.9717    4.6503 H   0  0
    1.7930   -3.5629    0.2821 H   0  0
    2.8447   -2.3434   -0.4347 H   0  0
    3.2298   -3.1975    3.7258 H   0  0
    2.0268   -4.0791    2.7863 H   0  0
    3.9888   -3.5300    1.4012 H   0  0
    3.8240   -1.8125    1.7699 H   0  0
  1  3  1  0
  1  4  2  0
  2  5  1  0
  2  6  2  0
  3  7  2  0
  4  8  1  0
  5  9  2  0
  6 10  1  0
  7 11  1  0
  8 11  2  0
  9 12  1  0
 10 12  2  0
 11 16  1  0
 12 17  1  0
 13 14  1  0
 13 15  1  0
 13 21  2  0
 14 16  2  0
 14 18  1  0
 15 17  2  0
 15 19  1  0
 18 20  1  0
 19 20  1  0
  1 22  1  0
  2 23  1  0
  3 24  1  0
  4 25  1  0
  5 26  1  0
  6 27  1  0
  7 28  1  0
  8 29  1  0
  9 30  1  0
 10 31  1  0
 16 32  1  0
 17 33  1  0
 18 34  1  0
 18 35  1  0
 19 36  1  0
 19 37  1  0
 20 38  1  0
 20 39  1  0
M  END
> <Name>
BR020360

$$$$
BR020361
  SciTegic05062102053D

 42 44  0  0  1  0            999 V2000
   -2.9009   -1.1068   -3.4216 C   0  0
    5.1190    1.2437    4.9092 C   0  0
   -3.2361   -2.1077   -2.5098 C   0  0
   -1.5786   -0.6759   -3.5294 C   0  0
    5.6892    0.0857    4.3806 C   0  0
    3.7329    1.3999    4.9124 C   0  0
   -2.2491   -2.6777   -1.7057 C   0  0
   -0.5916   -1.2459   -2.7253 C   0  0
    4.8732   -0.9162    3.8552 C   0  0
    2.9169    0.3980    4.3870 C   0  0
   -0.9268   -2.2468   -1.8134 C   0  0
    3.4871   -0.7601    3.8584 C   0  0
    1.4137   -2.7277    1.2395 C   0  0
    0.8207   -0.6970    0.1955 C   0  0
    1.5309   -0.3867    1.5078 C   0  0
    0.3206   -2.1320    0.3735 C   0  0  1  0  0  0
    2.3254   -1.6589    1.8103 C   0  0  1  0  0  0
    0.1440   -2.8643   -0.9415 C   0  0  1  0  0  0
    2.6016   -1.8461    3.2885 C   0  0  1  0  0  0
    1.5445   -3.9268    1.4518 O   0  0
   -0.2261   -4.2181   -0.6757 O   0  0
    3.2554   -3.1009    3.4858 O   0  0
   -3.6693   -0.6641   -4.0486 H   0  0
    5.7545    2.0232    5.3195 H   0  0
   -4.2655   -2.4441   -2.4265 H   0  0
   -1.3171    0.1025   -4.2400 H   0  0
    6.7684   -0.0366    4.3790 H   0  0
    3.2886    2.3009    5.3249 H   0  0
   -2.5196   -3.4568   -0.9979 H   0  0
    0.4360   -0.9038   -2.8160 H   0  0
    5.3262   -1.8151    3.4453 H   0  0
    1.8380    0.5284    4.3937 H   0  0
    0.0000   -0.0001   -0.0007 H   0  0
    1.5313   -0.6250   -0.6374 H   0  0
    2.1805    0.4899    1.4229 H   0  0
    0.7909   -0.1844    2.2924 H   0  0
   -0.6087   -2.1379    0.9547 H   0  0
    3.2566   -1.6682    1.2324 H   0  0
    1.1069   -2.8934   -1.4700 H   0  0
    1.6470   -1.8937    3.8305 H   0  0
    0.4743   -4.5880   -0.1177 H   0  0
    2.6687   -3.7758    3.1131 H   0  0
  1  3  2  0
  1  4  1  0
  2  5  2  0
  2  6  1  0
  3  7  1  0
  4  8  2  0
  5  9  1  0
  6 10  2  0
  7 11  2  0
  8 11  1  0
  9 12  2  0
 10 12  1  0
 11 18  1  0
 12 19  1  0
 13 16  1  0
 13 17  1  0
 13 20  2  0
 14 15  1  0
 14 16  1  0
 15 17  1  0
 16 18  1  0
 17 19  1  0
 18 21  1  0
 19 22  1  0
  1 23  1  0
  2 24  1  0
  3 25  1  0
  4 26  1  0
  5 27  1  0
  6 28  1  0
  7 29  1  0
  8 30  1  0
  9 31  1  0
 10 32  1  0
 14 33  1  0
 14 34  1  0
 15 35  1  0
 15 36  1  0
 16 37  1  0
 17 38  1  0
 18 39  1  0
 19 40  1  0
 21 41  1  0
 22 42  1  0
M  END
> <Name>
BR020361

$$$$
BR020362
  SciTegic05062102053D

 42 44  0  0  0  0            999 V2000
    0.4342    1.5398   -0.2847 C   0  0
   -0.8357    0.2507    1.3162 C   0  0
    2.3356   -7.4750    0.5068 C   0  0
    4.1907   -5.9372    0.3315 C   0  0
    0.2252    2.6902    0.4758 C   0  0
   -1.0446    1.4012    2.0768 C   0  0
    3.1441   -8.3707    1.2064 C   0  0
    4.9993   -6.8329    1.0313 C   0  0
   -0.0963    0.3200    0.1354 C   0  0
    2.8589   -6.2582    0.0693 C   0  0
   -0.5141    2.6209    1.6566 C   0  0
    4.4759   -8.0497    1.4687 C   0  0
    0.9092   -3.1697   -1.0473 C   0  0
    0.7104   -1.9718   -0.1988 C   0  0
    1.7762   -4.0835   -0.2682 C   0  0
    0.1183   -0.8630   -0.6466 C   0  0
    2.0277   -5.3371   -0.6503 C   0  0
    1.2928   -2.2163    1.1581 C   0  0
    2.2575   -3.3872    0.9663 C   0  0
   -0.7351    3.8509    2.4705 C   0  0
    5.3392   -9.0068    2.2189 C   0  0
    0.4534   -3.3632   -2.1574 O   0  0
    1.0124    1.6096   -1.2030 H   0  0
   -1.2552   -0.6928    1.6570 H   0  0
    1.2994   -7.7394    0.3097 H   0  0
    4.6129   -4.9925   -0.0027 H   0  0
    0.6427    3.6362    0.1412 H   0  0
   -1.6219    1.3383    2.9955 H   0  0
    2.7279   -9.3162    1.5440 H   0  0
    6.0359   -6.5749    1.2313 H   0  0
   -0.2521   -0.8673   -1.6718 H   0  0
    1.5913   -5.6756   -1.5901 H   0  0
    1.8120   -1.3393    1.5579 H   0  0
    0.4951   -2.4960    1.8563 H   0  0
    2.2627   -4.0412    1.8438 H   0  0
    3.2760   -3.0137    0.8052 H   0  0
   -1.6526    4.3604    2.1514 H   0  0
   -0.8234    3.6117    3.5382 H   0  0
    0.1046    4.5511    2.3704 H   0  0
    5.8409   -9.6929    1.5255 H   0  0
    6.1054   -8.4797    2.8021 H   0  0
    4.7508   -9.6004    2.9308 H   0  0
  1  5  1  0
  1  9  2  0
  2  6  2  0
  2  9  1  0
  3  7  2  0
  3 10  1  0
  4  8  1  0
  4 10  2  0
  5 11  2  0
  6 11  1  0
  7 12  1  0
  8 12  2  0
  9 16  1  0
 10 17  1  0
 11 20  1  0
 12 21  1  0
 13 14  1  0
 13 15  1  0
 13 22  2  0
 14 16  2  0
 14 18  1  0
 15 17  2  0
 15 19  1  0
 18 19  1  0
  1 23  1  0
  2 24  1  0
  3 25  1  0
  4 26  1  0
  5 27  1  0
  6 28  1  0
  7 29  1  0
  8 30  1  0
 16 31  1  0
 17 32  1  0
 18 33  1  0
 18 34  1  0
 19 35  1  0
 19 36  1  0
 20 37  1  0
 20 38  1  0
 20 39  1  0
 21 40  1  0
 21 41  1  0
 21 42  1  0
M  END
> <Name>
BR020362

$$$$
BR020363
  SciTegic05062102053D

 45 47  0  0  0  0            999 V2000
    2.2571   -0.0338   -1.9853 C   0  0
    0.4649   -1.5750   -2.4851 C   0  0
    1.2470   -3.4501    6.2398 C   0  0
    2.9443   -1.7312    6.1957 C   0  0
    2.6566   -0.0651   -3.3213 C   0  0
    0.8644   -1.6063   -3.8211 C   0  0
    1.8475   -4.0142    7.3654 C   0  0
    3.5447   -2.2952    7.3213 C   0  0
    1.1612   -0.7888   -1.5671 C   0  0
    1.7955   -2.3087    5.6549 C   0  0
    1.9602   -0.8513   -4.2393 C   0  0
    2.9963   -3.4367    7.9061 C   0  0
    0.6933   -1.4041    2.1433 C   0  0
    1.2294   -1.5699    0.7568 C   0  0
    1.4567   -2.0825    3.2363 C   0  0
    0.7514   -0.7570   -0.1971 C   0  0
    1.1799   -1.7301    4.5006 C   0  0
    2.2828   -2.5994    0.4716 C   0  0
    2.5082   -3.1002    2.9056 C   0  0
    3.2601   -2.7439    1.6304 C   0  0
    2.3865   -0.8825   -5.6680 C   0  0
    3.6364   -4.0390    9.1110 C   0  0
   -0.3168   -0.7444    2.3722 O   0  0
    2.8100    0.5837   -1.2814 H   0  0
   -0.3915   -2.1687   -2.1744 H   0  0
    0.3520   -3.9117    5.8295 H   0  0
    3.3833   -0.8412    5.7513 H   0  0
    3.5112    0.5267   -3.6384 H   0  0
    0.3163   -2.2217   -4.5298 H   0  0
    1.4131   -4.9032    7.8148 H   0  0
    4.4397   -1.8390    7.7363 H   0  0
    0.0235   -0.0086    0.1052 H   0  0
    0.4159   -0.9717    4.6503 H   0  0
    1.7930   -3.5629    0.2821 H   0  0
    2.8447   -2.3434   -0.4347 H   0  0
    3.2298   -3.1975    3.7258 H   0  0
    2.0268   -4.0791    2.7863 H   0  0
    3.9888   -3.5300    1.4012 H   0  0
    3.8240   -1.8125    1.7699 H   0  0
    3.1203   -1.6815   -5.8304 H   0  0
    1.5319   -1.0543   -6.3352 H   0  0
    2.8383    0.0715   -5.9700 H   0  0
    4.3832   -4.7855    8.8139 H   0  0
    4.1330   -3.2745    9.7226 H   0  0
    2.8933   -4.5273    9.7549 H   0  0
  1  5  2  0
  1  9  1  0
  2  6  1  0
  2  9  2  0
  3  7  2  0
  3 10  1  0
  4  8  1  0
  4 10  2  0
  5 11  1  0
  6 11  2  0
  7 12  1  0
  8 12  2  0
  9 16  1  0
 10 17  1  0
 11 21  1  0
 12 22  1  0
 13 14  1  0
 13 15  1  0
 13 23  2  0
 14 16  2  0
 14 18  1  0
 15 17  2  0
 15 19  1  0
 18 20  1  0
 19 20  1  0
  1 24  1  0
  2 25  1  0
  3 26  1  0
  4 27  1  0
  5 28  1  0
  6 29  1  0
  7 30  1  0
  8 31  1  0
 16 32  1  0
 17 33  1  0
 18 34  1  0
 18 35  1  0
 19 36  1  0
 19 37  1  0
 20 38  1  0
 20 39  1  0
 21 40  1  0
 21 41  1  0
 21 42  1  0
 22 43  1  0
 22 44  1  0
 22 45  1  0
M  END
> <Name>
BR020363

$$$$
BR020364
  SciTegic05062102053D

 52 54  0  0  0  0            999 V2000
    0.4343    1.5396   -0.2850 C   0  0
   -0.8355    0.2511    1.3163 C   0  0
    2.3352   -7.4749    0.5066 C   0  0
    4.1907   -5.9375    0.3318 C   0  0
    0.2257    2.6902    0.4754 C   0  0
   -1.0441    1.4017    2.0768 C   0  0
    3.1434   -8.3708    1.2064 C   0  0
    4.9990   -6.8334    1.0317 C   0  0
   -0.0963    0.3200    0.1354 C   0  0
    2.8589   -6.2582    0.0693 C   0  0
   -0.5135    2.6213    1.6563 C   0  0
    4.4753   -8.0500    1.4690 C   0  0
    0.9092   -3.1697   -1.0473 C   0  0
    0.7104   -1.9718   -0.1988 C   0  0
    1.7762   -4.0835   -0.2682 C   0  0
    0.1183   -0.8630   -0.6466 C   0  0
    2.0277   -5.3371   -0.6503 C   0  0
    1.2928   -2.2163    1.1581 C   0  0
    2.2575   -3.3872    0.9663 C   0  0
   -0.1775    5.0566    1.9971 C   0  0
   -1.5029    3.7258    3.6465 C   0  0
    4.7582  -10.2225    2.6353 C   0  0
    6.6816   -8.6377    2.4422 C   0  0
   -0.7245    3.7845    2.4252 N   0  0
    5.2926   -8.9558    2.1766 N   0  0
    0.4534   -3.3632   -2.1574 O   0  0
    1.0122    1.6093   -1.2035 H   0  0
   -1.2550   -0.6926    1.6570 H   0  0
    1.2991   -7.7392    0.3091 H   0  0
    4.6128   -4.9927   -0.0024 H   0  0
    0.6433    3.6356    0.1384 H   0  0
   -1.6213    1.3360    2.9955 H   0  0
    2.7255   -9.3164    1.5424 H   0  0
    6.0353   -6.5727    1.2310 H   0  0
   -0.2521   -0.8673   -1.6718 H   0  0
    1.5913   -5.6756   -1.5901 H   0  0
    1.8120   -1.3393    1.5579 H   0  0
    0.4951   -2.4960    1.8563 H   0  0
    2.2627   -4.0412    1.8438 H   0  0
    3.2760   -3.0137    0.8052 H   0  0
   -0.4413    5.8392    2.7133 H   0  0
   -0.5762    5.3285    1.0160 H   0  0
    0.9119    4.9956    1.9280 H   0  0
   -1.5591    4.7169    4.1043 H   0  0
   -1.0399    3.0357    4.3571 H   0  0
   -2.5174    3.3793    3.4318 H   0  0
    5.5319  -10.7885    3.1607 H   0  0
    4.4054  -10.8137    1.7859 H   0  0
    3.9205  -10.0546    3.3175 H   0  0
    7.1539   -9.4520    2.9979 H   0  0
    6.7530   -7.7206    3.0333 H   0  0
    7.2223   -8.4924    1.5032 H   0  0
  1  5  1  0
  1  9  2  0
  2  6  2  0
  2  9  1  0
  3  7  2  0
  3 10  1  0
  4  8  1  0
  4 10  2  0
  5 11  2  0
  6 11  1  0
  7 12  1  0
  8 12  2  0
  9 16  1  0
 10 17  1  0
 11 24  1  0
 12 25  1  0
 13 14  1  0
 13 15  1  0
 13 26  2  0
 14 16  2  0
 14 18  1  0
 15 17  2  0
 15 19  1  0
 18 19  1  0
 20 24  1  0
 21 24  1  0
 22 25  1  0
 23 25  1  0
  1 27  1  0
  2 28  1  0
  3 29  1  0
  4 30  1  0
  5 31  1  0
  6 32  1  0
  7 33  1  0
  8 34  1  0
 16 35  1  0
 17 36  1  0
 18 37  1  0
 18 38  1  0
 19 39  1  0
 19 40  1  0
 20 41  1  0
 20 42  1  0
 20 43  1  0
 21 44  1  0
 21 45  1  0
 21 46  1  0
 22 47  1  0
 22 48  1  0
 22 49  1  0
 23 50  1  0
 23 51  1  0
 23 52  1  0
M  END
> <Name>
BR020364

$$$$
BR020365
  SciTegic05062102053D

 55 57  0  0  0  0            999 V2000
    2.2571   -0.0337   -1.9850 C   0  0
    0.4650   -1.5748   -2.4853 C   0  0
    1.2468   -3.4501    6.2396 C   0  0
    2.9442   -1.7314    6.1961 C   0  0
    2.6568   -0.0647   -3.3209 C   0  0
    0.8647   -1.6058   -3.8214 C   0  0
    1.8469   -4.0143    7.3652 C   0  0
    3.5443   -2.2956    7.3218 C   0  0
    1.1612   -0.7888   -1.5671 C   0  0
    1.7955   -2.3087    5.6549 C   0  0
    1.9606   -0.8507   -4.2392 C   0  0
    2.9956   -3.4371    7.9063 C   0  0
    0.6933   -1.4041    2.1433 C   0  0
    1.2294   -1.5699    0.7568 C   0  0
    1.4567   -2.0825    3.2363 C   0  0
    0.7514   -0.7570   -0.1971 C   0  0
    1.1799   -1.7301    4.5006 C   0  0
    2.2828   -2.5994    0.4716 C   0  0
    2.5082   -3.1002    2.9056 C   0  0
    3.2601   -2.7439    1.6304 C   0  0
    3.5020   -0.1012   -6.0344 C   0  0
    1.6562   -1.7065   -6.5490 C   0  0
    3.0404   -5.1935    9.6594 C   0  0
    4.8044   -3.4232    9.6059 C   0  0
    2.3646   -0.8821   -5.5900 N   0  0
    3.6025   -4.0075    9.0445 N   0  0
   -0.3168   -0.7444    2.3722 O   0  0
    2.8100    0.5835   -1.2808 H   0  0
   -0.3914   -2.1684   -2.1745 H   0  0
    0.3519   -3.9117    5.8289 H   0  0
    3.3831   -0.8413    5.7515 H   0  0
    3.5124    0.5273   -3.6359 H   0  0
    0.3145   -2.2216   -4.5282 H   0  0
    1.4114   -4.9041    7.8127 H   0  0
    4.4390   -1.8370    7.7352 H   0  0
    0.0235   -0.0086    0.1052 H   0  0
    0.4159   -0.9717    4.6503 H   0  0
    1.7930   -3.5629    0.2821 H   0  0
    2.8447   -2.3434   -0.4347 H   0  0
    3.2298   -3.1975    3.7258 H   0  0
    2.0268   -4.0791    2.7863 H   0  0
    3.9888   -3.5300    1.4012 H   0  0
    3.8240   -1.8125    1.7699 H   0  0
    3.6647   -0.2501   -7.1050 H   0  0
    4.4033   -0.4060   -5.4956 H   0  0
    3.3259    0.9619   -5.8496 H   0  0
    2.1082   -1.6039   -7.5390 H   0  0
    0.6077   -1.4020   -6.6075 H   0  0
    1.6999   -2.7571   -6.2493 H   0  0
    3.6408   -5.4890   10.5237 H   0  0
    3.0245   -6.0193    8.9430 H   0  0
    2.0173   -4.9981    9.9918 H   0  0
    5.1284   -3.9961   10.4786 H   0  0
    4.6150   -2.3910    9.9130 H   0  0
    5.6080   -3.4264    8.8646 H   0  0
  1  5  2  0
  1  9  1  0
  2  6  1  0
  2  9  2  0
  3  7  2  0
  3 10  1  0
  4  8  1  0
  4 10  2  0
  5 11  1  0
  6 11  2  0
  7 12  1  0
  8 12  2  0
  9 16  1  0
 10 17  1  0
 11 25  1  0
 12 26  1  0
 13 14  1  0
 13 15  1  0
 13 27  2  0
 14 16  2  0
 14 18  1  0
 15 17  2  0
 15 19  1  0
 18 20  1  0
 19 20  1  0
 21 25  1  0
 22 25  1  0
 23 26  1  0
 24 26  1  0
  1 28  1  0
  2 29  1  0
  3 30  1  0
  4 31  1  0
  5 32  1  0
  6 33  1  0
  7 34  1  0
  8 35  1  0
 16 36  1  0
 17 37  1  0
 18 38  1  0
 18 39  1  0
 19 40  1  0
 19 41  1  0
 20 42  1  0
 20 43  1  0
 21 44  1  0
 21 45  1  0
 21 46  1  0
 22 47  1  0
 22 48  1  0
 22 49  1  0
 23 50  1  0
 23 51  1  0
 23 52  1  0
 24 53  1  0
 24 54  1  0
 24 55  1  0
M  END
> <Name>
BR020365

$$$$
BR020366
  SciTegic05062102053D

 33 34  0  0  0  0            999 V2000
   -1.0351   -1.2987   -0.0347 C   0  0
   -1.0540    1.1134   -0.1716 C   0  0
   -2.4248   -1.3163   -0.1526 C   0  0
   -2.4437    1.0958   -0.2896 C   0  0
   -0.3497   -0.0838   -0.0441 C   0  0
   -3.1292   -0.1191   -0.2801 C   0  0
    1.7501    0.5160    1.0722 C   0  0
    3.2340    0.5209    1.1757 C   0  0
    1.0800   -0.0659    0.0773 C   0  0
    1.2112    1.2039    2.2843 C   0  0
    3.6478    1.1182    2.4910 C   0  0
    2.3480    1.0540    3.2942 C   0  0
   -5.2560   -1.3936   -0.3906 C   0  0
   -5.2764    1.1028   -0.5183 C   0  0
   -4.5343   -0.1367   -0.3994 N   0  0
    3.9993    0.1316    0.3084 O   0  0
   -0.5000   -2.2401    0.0644 H   0  0
   -0.5334    2.0680   -0.1809 H   0  0
   -2.9492   -2.2684   -0.1437 H   0  0
   -2.9822    2.0348   -0.3888 H   0  0
    1.6589   -0.5885   -0.6850 H   0  0
    1.0341    2.2626    2.0648 H   0  0
    0.2852    0.7550    2.6554 H   0  0
    4.4377    0.5297    2.9632 H   0  0
    3.9737    2.1502    2.3324 H   0  0
    2.3112    1.8244    4.0706 H   0  0
    2.2724    0.0795    3.7945 H   0  0
   -6.3290   -1.2115   -0.4927 H   0  0
   -5.0771   -1.9256    0.5477 H   0  0
   -4.9258   -2.0249   -1.2199 H   0  0
   -6.3462    0.8938   -0.6004 H   0  0
   -4.9558    1.6514   -1.4081 H   0  0
   -5.1069    1.7306    0.3606 H   0  0
  1  3  1  0
  1  5  2  0
  2  4  2  0
  2  5  1  0
  3  6  2  0
  4  6  1  0
  5  9  1  0
  6 15  1  0
  7  8  1  0
  7  9  2  0
  7 10  1  0
  8 11  1  0
  8 16  2  0
 10 12  1  0
 11 12  1  0
 13 15  1  0
 14 15  1  0
  1 17  1  0
  2 18  1  0
  3 19  1  0
  4 20  1  0
  9 21  1  0
 10 22  1  0
 10 23  1  0
 11 24  1  0
 11 25  1  0
 12 26  1  0
 12 27  1  0
 13 28  1  0
 13 29  1  0
 13 30  1  0
 14 31  1  0
 14 32  1  0
 14 33  1  0
M  END
> <Name>
BR020366

$$$$
BR020367
  SciTegic05062102053D

 40 42  0  0  0  0            999 V2000
    0.4343    1.5397   -0.2849 C   0  0
   -0.8356    0.2510    1.3162 C   0  0
    2.3353   -7.4749    0.5067 C   0  0
    4.1907   -5.9374    0.3317 C   0  0
    0.2255    2.6902    0.4755 C   0  0
   -1.0443    1.4015    2.0767 C   0  0
    3.1436   -8.3708    1.2064 C   0  0
    4.9991   -6.8333    1.0315 C   0  0
   -0.0963    0.3200    0.1354 C   0  0
    2.8589   -6.2582    0.0693 C   0  0
   -0.5137    2.6212    1.6563 C   0  0
    4.4755   -8.0499    1.4689 C   0  0
    0.9092   -3.1697   -1.0473 C   0  0
    0.7104   -1.9718   -0.1988 C   0  0
    1.7762   -4.0835   -0.2682 C   0  0
    0.1183   -0.8630   -0.6466 C   0  0
    2.0277   -5.3371   -0.6503 C   0  0
    1.2928   -2.2163    1.1581 C   0  0
    2.2575   -3.3872    0.9663 C   0  0
   -0.7262    3.7924    2.4305 N   0  3
    5.2984   -8.9619    2.1812 N   0  3
   -0.2403    4.8794    2.0345 O   0  5
    4.8078  -10.0510    2.5657 O   0  5
    0.4534   -3.3632   -2.1574 O   0  0
   -1.3943    3.7084    3.4892 O   0  0
    6.4937   -8.6540    2.4065 O   0  0
    1.0127    1.6093   -1.2031 H   0  0
   -1.2555   -0.6925    1.6569 H   0  0
    1.2991   -7.7391    0.3097 H   0  0
    4.6131   -4.9929   -0.0028 H   0  0
    0.6446    3.6345    0.1365 H   0  0
   -1.6224    1.3338    2.9951 H   0  0
    2.7230   -9.3157    1.5417 H   0  0
    6.0355   -6.5708    1.2293 H   0  0
   -0.2521   -0.8673   -1.6718 H   0  0
    1.5913   -5.6756   -1.5901 H   0  0
    1.8120   -1.3393    1.5579 H   0  0
    0.4951   -2.4960    1.8563 H   0  0
    2.2627   -4.0412    1.8438 H   0  0
    3.2760   -3.0137    0.8052 H   0  0
  1  5  1  0
  1  9  2  0
  2  6  2  0
  2  9  1  0
  3  7  2  0
  3 10  1  0
  4  8  1  0
  4 10  2  0
  5 11  2  0
  6 11  1  0
  7 12  1  0
  8 12  2  0
  9 16  1  0
 10 17  1  0
 11 20  1  0
 12 21  1  0
 13 14  1  0
 13 15  1  0
 13 24  2  0
 14 16  2  0
 14 18  1  0
 15 17  2  0
 15 19  1  0
 18 19  1  0
 20 22  1  0
 20 25  2  0
 21 23  1  0
 21 26  2  0
  1 27  1  0
  2 28  1  0
  3 29  1  0
  4 30  1  0
  5 31  1  0
  6 32  1  0
  7 33  1  0
  8 34  1  0
 16 35  1  0
 17 36  1  0
 18 37  1  0
 18 38  1  0
 19 39  1  0
 19 40  1  0
M  CHG  4  20   1  21   1  22  -1  23  -1
M  END
> <Name>
BR020367

$$$$
BR020368
  SciTegic05062102053D

 34 36  0  0  0  0            999 V2000
    0.4315    1.5369   -0.2815 C   0  0
   -0.8327    0.2550    1.3131 C   0  0
    2.3393   -7.4716    0.5063 C   0  0
    4.1869   -5.9418    0.3328 C   0  0
    0.1966    2.6506    0.5086 C   0  0
   -1.0109    1.4260    2.0319 C   0  0
    3.1824   -8.3270    1.1972 C   0  0
    4.9473   -6.8655    1.0316 C   0  0
   -0.0963    0.3200    0.1354 C   0  0
    2.8589   -6.2582    0.0693 C   0  0
    0.9092   -3.1697   -1.0473 C   0  0
    0.7104   -1.9718   -0.1988 C   0  0
    1.7762   -4.0835   -0.2682 C   0  0
    0.1183   -0.8630   -0.6466 C   0  0
    2.0277   -5.3371   -0.6503 C   0  0
    1.2928   -2.2163    1.1581 C   0  0
    2.2575   -3.3872    0.9663 C   0  0
   -0.5136    2.6264    1.6587 N   0  0
    4.4776   -8.0542    1.4721 N   0  0
    0.4534   -3.3632   -2.1574 O   0  0
    1.0112    1.6264   -1.1945 H   0  0
   -1.2600   -0.6760    1.6711 H   0  0
    1.3081   -7.7530    0.3194 H   0  0
    4.6281   -5.0049    0.0084 H   0  0
    0.5873    3.6233    0.2281 H   0  0
   -1.5775    1.4292    2.9572 H   0  0
    2.8256   -9.2853    1.5604 H   0  0
    5.9886   -6.6670    1.2625 H   0  0
   -0.2521   -0.8673   -1.6718 H   0  0
    1.5913   -5.6756   -1.5901 H   0  0
    1.8120   -1.3393    1.5579 H   0  0
    0.4951   -2.4960    1.8563 H   0  0
    2.2627   -4.0412    1.8438 H   0  0
    3.2760   -3.0137    0.8052 H   0  0
  1  5  1  0
  1  9  2  0
  2  6  2  0
  2  9  1  0
  3  7  2  0
  3 10  1  0
  4  8  1  0
  4 10  2  0
  5 18  2  0
  6 18  1  0
  7 19  1  0
  8 19  2  0
  9 14  1  0
 10 15  1  0
 11 12  1  0
 11 13  1  0
 11 20  2  0
 12 14  2  0
 12 16  1  0
 13 15  2  0
 13 17  1  0
 16 17  1  0
  1 21  1  0
  2 22  1  0
  3 23  1  0
  4 24  1  0
  5 25  1  0
  6 26  1  0
  7 27  1  0
  8 28  1  0
 14 29  1  0
 15 30  1  0
 16 31  1  0
 16 32  1  0
 17 33  1  0
 17 34  1  0
M  END
> <Name>
BR020368

$$$$
BR020369
  SciTegic05062102053D

 37 39  0  0  0  0            999 V2000
    2.2533   -0.0370   -1.9861 C   0  0
    0.4695   -1.5712   -2.4851 C   0  0
    1.2505   -3.4464    6.2395 C   0  0
    2.9406   -1.7359    6.1970 C   0  0
    2.6105   -0.1016   -3.3233 C   0  0
    0.9065   -1.5670   -3.8000 C   0  0
    1.8835   -3.9686    7.3560 C   0  0
    3.4979   -2.3345    7.3155 C   0  0
    1.1612   -0.7888   -1.5671 C   0  0
    1.7955   -2.3087    5.6549 C   0  0
    0.6933   -1.4041    2.1433 C   0  0
    1.2294   -1.5699    0.7568 C   0  0
    1.4567   -2.0825    3.2363 C   0  0
    0.7514   -0.7570   -0.1971 C   0  0
    1.1799   -1.7301    4.5006 C   0  0
    2.2828   -2.5994    0.4716 C   0  0
    2.5082   -3.1002    2.9056 C   0  0
    3.2601   -2.7439    1.6304 C   0  0
    1.9629   -0.8499   -4.2443 N   0  0
    2.9971   -3.4400    7.9110 N   0  0
   -0.3168   -0.7444    2.3722 O   0  0
    2.8172    0.5851   -1.2988 H   0  0
   -0.3874   -2.1710   -2.1964 H   0  0
    0.3581   -3.9210    5.8447 H   0  0
    3.3949   -0.8480    5.7693 H   0  0
    3.4543    0.4665   -3.7011 H   0  0
    0.4016   -2.1603   -4.5551 H   0  0
    1.4978   -4.8545    7.8499 H   0  0
    4.3915   -1.9270    7.7765 H   0  0
    0.0235   -0.0086    0.1052 H   0  0
    0.4159   -0.9717    4.6503 H   0  0
    1.7930   -3.5629    0.2821 H   0  0
    2.8447   -2.3434   -0.4347 H   0  0
    3.2298   -3.1975    3.7258 H   0  0
    2.0268   -4.0791    2.7863 H   0  0
    3.9888   -3.5300    1.4012 H   0  0
    3.8240   -1.8125    1.7699 H   0  0
  1  5  2  0
  1  9  1  0
  2  6  1  0
  2  9  2  0
  3  7  2  0
  3 10  1  0
  4  8  1  0
  4 10  2  0
  5 19  1  0
  6 19  2  0
  7 20  1  0
  8 20  2  0
  9 14  1  0
 10 15  1  0
 11 12  1  0
 11 13  1  0
 11 21  2  0
 12 14  2  0
 12 16  1  0
 13 15  2  0
 13 17  1  0
 16 18  1  0
 17 18  1  0
  1 22  1  0
  2 23  1  0
  3 24  1  0
  4 25  1  0
  5 26  1  0
  6 27  1  0
  7 28  1  0
  8 29  1  0
 14 30  1  0
 15 31  1  0
 16 32  1  0
 16 33  1  0
 17 34  1  0
 17 35  1  0
 18 36  1  0
 18 37  1  0
M  END
> <Name>
BR020369

$$$$
BR020370
  SciTegic05062102053D

 46 50  0  0  0  0            999 V2000
    2.9199    2.4277   -0.4339 C   0  0
    0.5286   -8.0803    2.3202 C   0  0
    2.6255    3.5149    0.3795 C   0  0
    1.4226   -8.9308    2.9587 C   0  0
    2.0253    1.3640   -0.5094 C   0  0
    0.9956   -7.1887    1.3588 C   0  0
    1.4379    3.5361    1.1150 C   0  0
    2.7809   -8.8879    2.6345 C   0  0
   -1.2581    0.3798    0.9158 C   0  0
    4.2137   -6.2402   -0.2303 C   0  0
   -1.4698    1.4979    1.6967 C   0  0
    5.0297   -7.1195    0.4521 C   0  0
    0.8308    1.3856    0.2305 C   0  0
    2.3619   -7.1458    1.0329 C   0  0
   -0.0873    0.3284    0.1731 C   0  0
    2.8591   -6.2582    0.0691 C   0  0
    0.5253    2.4863    1.0582 C   0  0
    3.2753   -8.0065    1.6770 C   0  0
    0.9092   -3.1697   -1.0473 C   0  0
    0.7104   -1.9718   -0.1988 C   0  0
    1.7762   -4.0835   -0.2682 C   0  0
    0.1183   -0.8630   -0.6466 C   0  0
    2.0277   -5.3371   -0.6503 C   0  0
    1.2928   -2.2163    1.1581 C   0  0
    2.2575   -3.3872    0.9663 C   0  0
   -0.6100    2.5389    1.7802 N   0  0
    4.5904   -7.9913    1.3885 N   0  0
    0.4534   -3.3632   -2.1574 O   0  0
    3.8419    2.4080   -1.0069 H   0  0
   -0.5277   -8.1110    2.5697 H   0  0
    3.3178    4.3493    0.4438 H   0  0
    1.0665   -9.6299    3.7097 H   0  0
    2.2850    0.5282   -1.1544 H   0  0
    0.2709   -6.5363    0.8779 H   0  0
    1.2306    4.3997    1.7444 H   0  0
    3.4605   -9.5650    3.1488 H   0  0
   -1.9916   -0.4198    0.8965 H   0  0
    4.6342   -5.5669   -0.9701 H   0  0
   -2.3676    1.5941    2.2985 H   0  0
    6.0971   -7.1512    0.2597 H   0  0
   -0.2608   -0.8290   -1.6518 H   0  0
    1.5911   -5.6756   -1.5900 H   0  0
    1.8120   -1.3393    1.5579 H   0  0
    0.4951   -2.4960    1.8563 H   0  0
    2.2627   -4.0412    1.8438 H   0  0
    3.2760   -3.0137    0.8052 H   0  0
  1  3  1  0
  1  5  2  0
  2  4  1  0
  2  6  2  0
  3  7  2  0
  4  8  2  0
  5 13  1  0
  6 14  1  0
  7 17  1  0
  8 18  1  0
  9 11  2  0
  9 15  1  0
 10 12  1  0
 10 16  2  0
 11 26  1  0
 12 27  2  0
 13 15  2  0
 13 17  1  0
 14 16  1  0
 14 18  2  0
 15 22  1  0
 16 23  1  0
 17 26  2  0
 18 27  1  0
 19 20  1  0
 19 21  1  0
 19 28  2  0
 20 22  2  0
 20 24  1  0
 21 23  2  0
 21 25  1  0
 24 25  1  0
  1 29  1  0
  2 30  1  0
  3 31  1  0
  4 32  1  0
  5 33  1  0
  6 34  1  0
  7 35  1  0
  8 36  1  0
  9 37  1  0
 10 38  1  0
 11 39  1  0
 12 40  1  0
 22 41  1  0
 23 42  1  0
 24 43  1  0
 24 44  1  0
 25 45  1  0
 25 46  1  0
M  END
> <Name>
BR020370

$$$$
BR020371
  SciTegic05062102053D

 49 53  0  0  0  0            999 V2000
    4.0990    1.4831   -1.7315 C   0  0
    4.7289   -0.1354    6.3553 C   0  0
    4.4109    1.3797   -3.0815 C   0  0
    5.2448   -0.7767    7.4746 C   0  0
    3.0214    0.7668   -1.2186 C   0  0
    3.5835   -0.6363    5.7434 C   0  0
    3.6450    0.5608   -3.9149 C   0  0
    4.6145   -1.9168    7.9793 C   0  0
    0.4205   -1.5934   -2.4209 C   0  0
    1.1929   -3.4425    6.1805 C   0  0
    0.8008   -1.6369   -3.7469 C   0  0
    1.7727   -4.0151    7.2944 C   0  0
    2.2512   -0.0569   -2.0571 C   0  0
    2.9496   -1.7831    6.2512 C   0  0
    1.1612   -0.7888   -1.5671 C   0  0
    1.7955   -2.3087    5.6549 C   0  0
    2.5623   -0.1667   -3.4287 C   0  0
    3.4678   -2.4392    7.3874 C   0  0
    0.6933   -1.4041    2.1433 C   0  0
    1.2294   -1.5699    0.7568 C   0  0
    1.4567   -2.0825    3.2363 C   0  0
    0.7514   -0.7570   -0.1971 C   0  0
    1.1799   -1.7301    4.5006 C   0  0
    2.2828   -2.5994    0.4716 C   0  0
    2.5082   -3.1002    2.9056 C   0  0
    3.2601   -2.7439    1.6304 C   0  0
    1.8452   -0.9467   -4.2596 N   0  0
    2.8852   -3.5398    7.8996 N   0  0
   -0.3168   -0.7444    2.3722 O   0  0
    4.6920    2.1185   -1.0809 H   0  0
    5.2162    0.7509    5.9604 H   0  0
    5.2504    1.9348   -3.4898 H   0  0
    6.1380   -0.3922    7.9584 H   0  0
    2.8030    0.8696   -0.1584 H   0  0
    3.2052   -0.1120    4.8692 H   0  0
    3.9105    0.4968   -4.9686 H   0  0
    5.0384   -2.4004    8.8575 H   0  0
   -0.4296   -2.1739   -2.0773 H   0  0
    0.2990   -3.8776    5.7455 H   0  0
    0.2596   -2.2489   -4.4609 H   0  0
    1.3456   -4.9027    7.7496 H   0  0
    0.0235   -0.0086    0.1052 H   0  0
    0.4159   -0.9717    4.6503 H   0  0
    1.7930   -3.5629    0.2821 H   0  0
    2.8447   -2.3434   -0.4347 H   0  0
    3.2298   -3.1975    3.7258 H   0  0
    2.0268   -4.0791    2.7863 H   0  0
    3.9888   -3.5300    1.4012 H   0  0
    3.8240   -1.8125    1.7699 H   0  0
  1  3  1  0
  1  5  2  0
  2  4  1  0
  2  6  2  0
  3  7  2  0
  4  8  2  0
  5 13  1  0
  6 14  1  0
  7 17  1  0
  8 18  1  0
  9 11  2  0
  9 15  1  0
 10 12  1  0
 10 16  2  0
 11 27  1  0
 12 28  2  0
 13 15  2  0
 13 17  1  0
 14 16  1  0
 14 18  2  0
 15 22  1  0
 16 23  1  0
 17 27  2  0
 18 28  1  0
 19 20  1  0
 19 21  1  0
 19 29  2  0
 20 22  2  0
 20 24  1  0
 21 23  2  0
 21 25  1  0
 24 26  1  0
 25 26  1  0
  1 30  1  0
  2 31  1  0
  3 32  1  0
  4 33  1  0
  5 34  1  0
  6 35  1  0
  7 36  1  0
  8 37  1  0
  9 38  1  0
 10 39  1  0
 11 40  1  0
 12 41  1  0
 22 42  1  0
 23 43  1  0
 24 44  1  0
 24 45  1  0
 25 46  1  0
 25 47  1  0
 26 48  1  0
 26 49  1  0
M  END
> <Name>
BR020371

$$$$
BR020372
  SciTegic05062102053D

 46 50  0  0  0  0            999 V2000
   -1.5344    1.4811    1.7291 C   0  0
    5.0959   -7.1026    0.4230 C   0  0
   -0.6266    2.5379    1.7939 C   0  0
    4.6112   -7.9892    1.3844 C   0  0
   -1.2653    0.3790    0.9208 C   0  0
    4.2218   -6.2390   -0.2331 C   0  0
    2.0280    1.3633   -0.5098 C   0  0
    0.9931   -7.1879    1.3596 C   0  0
    2.8904    2.4439   -0.4033 C   0  0
    0.5723   -8.0911    2.3238 C   0  0
    1.5051    3.5273    1.0739 C   0  0
    2.7031   -8.8836    2.6496 C   0  0
    0.5621    2.4980    1.0465 C   0  0
    3.2419   -8.0171    1.6964 C   0  0
    0.8382    1.3839    0.2271 C   0  0
    2.3537   -7.1445    1.0344 C   0  0
   -0.0871    0.3287    0.1738 C   0  0
    2.8591   -6.2582    0.0691 C   0  0
    0.9092   -3.1697   -1.0473 C   0  0
    0.7104   -1.9718   -0.1988 C   0  0
    1.7762   -4.0835   -0.2682 C   0  0
    0.1183   -0.8630   -0.6466 C   0  0
    2.0277   -5.3371   -0.6503 C   0  0
    1.2928   -2.2163    1.1581 C   0  0
    2.2575   -3.3872    0.9663 C   0  0
    2.6596    3.5261    0.3700 N   0  0
    1.3927   -8.9407    2.9778 N   0  0
    0.4534   -3.3632   -2.1574 O   0  0
   -2.4518    1.5181    2.3093 H   0  0
    6.1558   -7.0860    0.1861 H   0  0
   -0.8526    3.3906    2.4298 H   0  0
    5.3075   -8.6565    1.8868 H   0  0
   -1.9867   -0.4344    0.8854 H   0  0
    4.6210   -5.5553   -0.9791 H   0  0
    2.3012    0.5381   -1.1594 H   0  0
    0.2567   -6.5450    0.8882 H   0  0
    3.8224    2.4641   -0.9589 H   0  0
   -0.4746   -8.1539    2.6030 H   0  0
    1.3540    4.4133    1.6845 H   0  0
    3.3323   -9.5810    3.1961 H   0  0
   -0.2610   -0.8281   -1.6514 H   0  0
    1.5911   -5.6756   -1.5900 H   0  0
    1.8120   -1.3393    1.5579 H   0  0
    0.4951   -2.4960    1.8563 H   0  0
    2.2627   -4.0412    1.8438 H   0  0
    3.2760   -3.0137    0.8052 H   0  0
  1  3  1  0
  1  5  2  0
  2  4  2  0
  2  6  1  0
  3 13  2  0
  4 14  1  0
  5 17  1  0
  6 18  2  0
  7  9  2  0
  7 15  1  0
  8 10  2  0
  8 16  1  0
  9 26  1  0
 10 27  1  0
 11 13  1  0
 11 26  2  0
 12 14  1  0
 12 27  2  0
 13 15  1  0
 14 16  2  0
 15 17  2  0
 16 18  1  0
 17 22  1  0
 18 23  1  0
 19 20  1  0
 19 21  1  0
 19 28  2  0
 20 22  2  0
 20 24  1  0
 21 23  2  0
 21 25  1  0
 24 25  1  0
  1 29  1  0
  2 30  1  0
  3 31  1  0
  4 32  1  0
  5 33  1  0
  6 34  1  0
  7 35  1  0
  8 36  1  0
  9 37  1  0
 10 38  1  0
 11 39  1  0
 12 40  1  0
 22 41  1  0
 23 42  1  0
 24 43  1  0
 24 44  1  0
 25 45  1  0
 25 46  1  0
M  END
> <Name>
BR020372

$$$$
BR020373
  SciTegic05062102053D

 49 53  0  0  0  0            999 V2000
    0.7498   -1.6832   -3.7745 C   0  0
    1.7273   -4.0727    7.3056 C   0  0
    1.8322   -0.9581   -4.2722 C   0  0
    2.8761   -3.5581    7.9060 C   0  0
    0.4151   -1.5987   -2.4250 C   0  0
    1.1882   -3.4495    6.1827 C   0  0
    3.0220    0.7688   -1.2167 C   0  0
    3.5847   -0.6346    5.7415 C   0  0
    4.0858    1.4646   -1.7706 C   0  0
    4.7237   -0.1712    6.3823 C   0  0
    3.6829    0.6069   -3.8627 C   0  0
    4.6464   -1.8532    7.9442 C   0  0
    2.5902   -0.1400   -3.4180 C   0  0
    3.4955   -2.4106    7.3835 C   0  0
    2.2544   -0.0518   -2.0512 C   0  0
    2.9527   -1.7767    6.2467 C   0  0
    1.1612   -0.7888   -1.5671 C   0  0
    1.7955   -2.3087    5.6549 C   0  0
    0.6933   -1.4041    2.1433 C   0  0
    1.2294   -1.5699    0.7568 C   0  0
    1.4567   -2.0825    3.2363 C   0  0
    0.7514   -0.7570   -0.1971 C   0  0
    1.1799   -1.7301    4.5006 C   0  0
    2.2828   -2.5994    0.4716 C   0  0
    2.5082   -3.1002    2.9056 C   0  0
    3.2601   -2.7439    1.6304 C   0  0
    4.4363    1.4050   -3.0729 N   0  0
    5.2713   -0.7513    7.4714 N   0  0
   -0.3168   -0.7444    2.3722 O   0  0
    0.1679   -2.3141   -4.4401 H   0  0
    1.2531   -4.9602    7.7146 H   0  0
    2.0798   -1.0357   -5.3282 H   0  0
    3.2836   -4.0570    8.7821 H   0  0
   -0.4333   -2.1723   -2.0580 H   0  0
    0.2920   -3.8679    5.7299 H   0  0
    2.8186    0.8813   -0.1567 H   0  0
    3.2195   -0.0988    4.8714 H   0  0
    4.7037    2.1110   -1.1556 H   0  0
    5.2415    0.7111    6.0200 H   0  0
    3.9943    0.5844   -4.9035 H   0  0
    5.1154   -2.2926    8.8204 H   0  0
    0.0235   -0.0086    0.1052 H   0  0
    0.4159   -0.9717    4.6503 H   0  0
    1.7930   -3.5629    0.2821 H   0  0
    2.8447   -2.3434   -0.4347 H   0  0
    3.2298   -3.1975    3.7258 H   0  0
    2.0268   -4.0791    2.7863 H   0  0
    3.9888   -3.5300    1.4012 H   0  0
    3.8240   -1.8125    1.7699 H   0  0
  1  3  2  0
  1  5  1  0
  2  4  1  0
  2  6  2  0
  3 13  1  0
  4 14  2  0
  5 17  2  0
  6 18  1  0
  7  9  2  0
  7 15  1  0
  8 10  2  0
  8 16  1  0
  9 27  1  0
 10 28  1  0
 11 13  1  0
 11 27  2  0
 12 14  1  0
 12 28  2  0
 13 15  2  0
 14 16  1  0
 15 17  1  0
 16 18  2  0
 17 22  1  0
 18 23  1  0
 19 20  1  0
 19 21  1  0
 19 29  2  0
 20 22  2  0
 20 24  1  0
 21 23  2  0
 21 25  1  0
 24 26  1  0
 25 26  1  0
  1 30  1  0
  2 31  1  0
  3 32  1  0
  4 33  1  0
  5 34  1  0
  6 35  1  0
  7 36  1  0
  8 37  1  0
  9 38  1  0
 10 39  1  0
 11 40  1  0
 12 41  1  0
 22 42  1  0
 23 43  1  0
 24 44  1  0
 24 45  1  0
 25 46  1  0
 25 47  1  0
 26 48  1  0
 26 49  1  0
M  END
> <Name>
BR020373

$$$$
BR020374
  SciTegic05062102053D

 32 34  0  0  0  0            999 V2000
   -0.4419    1.9543    1.6452 C   0  0
    4.3366   -7.4116    1.3166 C   0  0
   -0.2755    0.5571    1.4804 C   0  0
    3.9372   -6.1134    0.9140 C   0  0
   -0.3596    2.5286    0.3959 C   0  0
    3.4904   -8.3103    0.7055 C   0  0
   -0.0963    0.3200    0.1354 C   0  0
    2.8589   -6.2582    0.0693 C   0  0
    0.9092   -3.1697   -1.0473 C   0  0
    0.7104   -1.9718   -0.1988 C   0  0
    1.7762   -4.0835   -0.2682 C   0  0
    0.1183   -0.8630   -0.6466 C   0  0
    2.0277   -5.3371   -0.6503 C   0  0
    1.2928   -2.2163    1.1581 C   0  0
    2.2575   -3.3872    0.9663 C   0  0
   -0.1491    1.5257   -0.5141 N   0  0
    2.5960   -7.5979   -0.0500 N   0  0
    0.4534   -3.3632   -2.1574 O   0  0
   -0.6044    2.4854    2.5727 H   0  0
    5.1521   -7.6653    1.9794 H   0  0
   -0.2868   -0.1918    2.2606 H   0  0
    4.3902   -5.1768    1.2096 H   0  0
   -0.4324    3.5577    0.0742 H   0  0
    3.4453   -9.3895    0.7401 H   0  0
   -0.2521   -0.8673   -1.6718 H   0  0
    1.5913   -5.6756   -1.5901 H   0  0
    1.8120   -1.3393    1.5579 H   0  0
    0.4951   -2.4960    1.8563 H   0  0
    2.2627   -4.0412    1.8438 H   0  0
    3.2760   -3.0137    0.8052 H   0  0
   -0.0491    1.6621   -1.5111 H   0  0
    1.8576   -8.0056   -0.6079 H   0  0
  1  3  1  0
  1  5  2  0
  2  4  1  0
  2  6  2  0
  3  7  2  0
  4  8  2  0
  5 16  1  0
  6 17  1  0
  7 12  1  0
  7 16  1  0
  8 13  1  0
  8 17  1  0
  9 10  1  0
  9 11  1  0
  9 18  2  0
 10 12  2  0
 10 14  1  0
 11 13  2  0
 11 15  1  0
 14 15  1  0
  1 19  1  0
  2 20  1  0
  3 21  1  0
  4 22  1  0
  5 23  1  0
  6 24  1  0
 12 25  1  0
 13 26  1  0
 14 27  1  0
 14 28  1  0
 15 29  1  0
 15 30  1  0
 16 31  1  0
 17 32  1  0
M  END
> <Name>
BR020374

$$$$
BR020375
  SciTegic05062102053D

 35 37  0  0  0  0            999 V2000
    1.6764   -1.1744   -3.7249 C   0  0
    2.6355   -3.5317    7.3486 C   0  0
    1.0986   -1.7400   -2.5615 C   0  0
    1.8842   -3.5914    6.1489 C   0  0
    2.0747    0.1050   -3.4060 C   0  0
    2.9828   -2.2143    7.5513 C   0  0
    1.1612   -0.7888   -1.5671 C   0  0
    1.7955   -2.3087    5.6549 C   0  0
    0.6933   -1.4041    2.1433 C   0  0
    1.2294   -1.5699    0.7568 C   0  0
    1.4567   -2.0825    3.2363 C   0  0
    0.7514   -0.7570   -0.1971 C   0  0
    1.1799   -1.7301    4.5006 C   0  0
    2.2828   -2.5994    0.4716 C   0  0
    2.5082   -3.1002    2.9056 C   0  0
    3.2601   -2.7439    1.6304 C   0  0
    1.7563    0.3286   -2.0919 N   0  0
    2.4671   -1.4800    6.5154 N   0  0
   -0.3168   -0.7444    2.3722 O   0  0
    1.7906   -1.6471   -4.6904 H   0  0
    2.8955   -4.3580    7.9953 H   0  0
    0.6838   -2.7339   -2.4634 H   0  0
    1.4553   -4.4759    5.6981 H   0  0
    2.5553    0.8734   -3.9946 H   0  0
    3.5484   -1.7353    8.3377 H   0  0
    0.0235   -0.0086    0.1052 H   0  0
    0.4159   -0.9717    4.6503 H   0  0
    1.7930   -3.5629    0.2821 H   0  0
    2.8447   -2.3434   -0.4347 H   0  0
    3.2298   -3.1975    3.7258 H   0  0
    2.0268   -4.0791    2.7863 H   0  0
    3.9888   -3.5300    1.4012 H   0  0
    3.8240   -1.8125    1.7699 H   0  0
    1.9362    1.1894   -1.5924 H   0  0
    2.5703   -0.4796    6.4090 H   0  0
  1  3  1  0
  1  5  2  0
  2  4  1  0
  2  6  2  0
  3  7  2  0
  4  8  2  0
  5 17  1  0
  6 18  1  0
  7 12  1  0
  7 17  1  0
  8 13  1  0
  8 18  1  0
  9 10  1  0
  9 11  1  0
  9 19  2  0
 10 12  2  0
 10 14  1  0
 11 13  2  0
 11 15  1  0
 14 16  1  0
 15 16  1  0
  1 20  1  0
  2 21  1  0
  3 22  1  0
  4 23  1  0
  5 24  1  0
  6 25  1  0
 12 26  1  0
 13 27  1  0
 14 28  1  0
 14 29  1  0
 15 30  1  0
 15 31  1  0
 16 32  1  0
 16 33  1  0
 17 34  1  0
 18 35  1  0
M  END
> <Name>
BR020375

$$$$
BR020376
  SciTegic05062102053D

 16 16  0  0  0  0            999 V2000
    4.0253   -2.2191   -0.0815 C   0  0
    1.8851   -1.0363   -0.1124 C   0  0
    2.8783   -1.6520    2.0022 C   0  0
    0.8066   -0.4630    0.5610 C   0  0
    1.7997   -1.0786    2.6757 C   0  0
    2.9210   -1.6309    0.6081 C   0  0
    0.7638   -0.4841    1.9551 C   0  0
   -0.3885    0.1302    2.6751 C   0  0
    4.9223   -2.6970   -0.6418 N   0  0
   -1.9529   -1.0120    2.4945 Br  0  0
    1.9032   -1.0137   -1.1995 H   0  0
    3.6787   -2.1102    2.5784 H   0  0
    0.0036   -0.0028   -0.0086 H   0  0
    1.7757   -1.0981    3.7621 H   0  0
   -0.6572    1.1118    2.2683 H   0  0
   -0.1950    0.2446    3.7480 H   0  0
  1  6  1  0
  1  9  3  0
  2  4  2  0
  2  6  1  0
  3  5  1  0
  3  6  2  0
  4  7  1  0
  5  7  2  0
  7  8  1  0
  8 10  1  0
  2 11  1  0
  3 12  1  0
  4 13  1  0
  5 14  1  0
  8 15  1  0
  8 16  1  0
M  END
> <Name>
BR020376

$$$$
BR020377
  SciTegic05062102053D

 17 17  0  0  0  0            999 V2000
    1.8851   -1.0363   -0.1124 C   0  0
    2.8783   -1.6520    2.0022 C   0  0
    0.8066   -0.4630    0.5610 C   0  0
    1.7997   -1.0786    2.6757 C   0  0
    2.9210   -1.6309    0.6081 C   0  0
    0.7638   -0.4841    1.9551 C   0  0
    4.0464   -2.2285   -0.0930 C   0  0
   -0.3892    0.1300    2.6748 C   0  0
    4.9922   -2.7684    0.4875 O   0  0
    0.1683    1.8090    3.4839 Br  0  0
    1.9089   -1.0145   -1.1989 H   0  0
    3.6797   -2.1125    2.5740 H   0  0
    0.0041   -0.0017   -0.0084 H   0  0
    1.7748   -1.0992    3.7621 H   0  0
    4.0370   -2.1872   -1.2040 H   0  0
   -0.7625   -0.5092    3.4828 H   0  0
   -1.2247    0.3575    2.0028 H   0  0
  1  3  2  0
  1  5  1  0
  2  4  1  0
  2  5  2  0
  3  6  1  0
  4  6  2  0
  5  7  1  0
  6  8  1  0
  7  9  2  0
  8 10  1  0
  1 11  1  0
  2 12  1  0
  3 13  1  0
  4 14  1  0
  7 15  1  0
  8 16  1  0
  8 17  1  0
M  END
> <Name>
BR020377

$$$$
BR020378
  SciTegic05062102053D

 19 19  0  0  0  0            999 V2000
    1.8851   -1.0363   -0.1124 C   0  0
    2.8783   -1.6520    2.0022 C   0  0
    0.8066   -0.4630    0.5610 C   0  0
    1.7997   -1.0786    2.6757 C   0  0
    2.9210   -1.6309    0.6081 C   0  0
    0.7638   -0.4841    1.9551 C   0  0
    4.0464   -2.2285   -0.0930 C   0  0
   -0.3892    0.1300    2.6748 C   0  0
   -2.0284    2.7064    3.9266 N   0  5
   -0.3055    1.5954    2.7118 N   0  0
   -1.2062    2.1694    3.3463 N   0  3
    4.9922   -2.7684    0.4875 O   0  0
    1.9089   -1.0145   -1.1989 H   0  0
    3.6797   -2.1125    2.5740 H   0  0
    0.0041   -0.0017   -0.0084 H   0  0
    1.7748   -1.0992    3.7621 H   0  0
    4.0370   -2.1872   -1.2040 H   0  0
   -1.3404   -0.1612    2.2045 H   0  0
   -0.4430   -0.2423    3.7083 H   0  0
  1  3  2  0
  1  5  1  0
  2  4  1  0
  2  5  2  0
  3  6  1  0
  4  6  2  0
  5  7  1  0
  6  8  1  0
  7 12  2  0
  8 10  1  0
  9 11  2  0
 10 11  2  0
  1 13  1  0
  2 14  1  0
  3 15  1  0
  4 16  1  0
  7 17  1  0
  8 18  1  0
  8 19  1  0
M  CHG  2   9  -1  11   1
M  END
> <Name>
BR020378

$$$$
BR020379
  SciTegic05062102053D

 29 29  0  0  1  0            999 V2000
    4.9715   -1.9465    5.0697 C   0  0
    2.6356   -1.7370    5.6497 C   0  0
    4.6210   -2.1693    3.7381 C   0  0
    2.2850   -1.9598    4.3181 C   0  0
    3.9788   -1.7304    6.0255 C   0  0
    3.2777   -2.1760    3.3623 C   0  0
    1.9411   -4.1964    0.3670 C   0  0
    1.0117   -5.3610    0.1413 C   0  0
    4.3528   -1.4921    7.4493 C   0  0
    1.9568   -3.6169    1.7739 C   0  0
    2.8986   -2.4159    1.9183 C   0  0  1  0  0  0
    5.2476   -2.5150   10.4567 N   0  5
    4.7305   -2.7312    8.1407 N   0  0
    4.9991   -2.6126    9.3478 N   0  3
    2.6320   -3.7514   -0.5481 O   0  0
    2.2622   -1.2374    1.4233 O   0  0
    6.0207   -1.9437    5.3536 H   0  0
    1.8557   -1.5683    6.3878 H   0  0
    5.4011   -2.3353    3.0000 H   0  0
    1.2360   -1.9636    4.0339 H   0  0
    0.0325   -4.9917   -0.1734 H   0  0
    0.9190   -5.9398    1.0635 H   0  0
    1.4144   -6.0082   -0.6428 H   0  0
    5.1865   -0.7771    7.5178 H   0  0
    3.5188   -1.0282    7.9963 H   0  0
    2.2676   -4.4236    2.4486 H   0  0
    0.9267   -3.3292    2.0151 H   0  0
    3.8058   -2.5630    1.3200 H   0  0
    2.0309   -1.4186    0.5000 H   0  0
  1  3  2  0
  1  5  1  0
  2  4  1  0
  2  5  2  0
  3  6  1  0
  4  6  2  0
  5  9  1  0
  6 11  1  0
  7  8  1  0
  7 10  1  0
  7 15  2  0
  9 13  1  0
 10 11  1  0
 11 16  1  0
 12 14  2  0
 13 14  2  0
  1 17  1  0
  2 18  1  0
  3 19  1  0
  4 20  1  0
  8 21  1  0
  8 22  1  0
  8 23  1  0
  9 24  1  0
  9 25  1  0
 10 26  1  0
 10 27  1  0
 11 28  1  0
 16 29  1  0
M  CHG  2  12  -1  14   1
M  END
> <Name>
BR020379

$$$$
BR020380
  SciTegic05062102053D

 46 48  0  0  0  0            999 V2000
    0.4342    1.5398   -0.2847 C   0  0
   -0.8357    0.2507    1.3162 C   0  0
    2.3356   -7.4750    0.5068 C   0  0
    4.1907   -5.9372    0.3315 C   0  0
    0.2252    2.6902    0.4758 C   0  0
   -1.0446    1.4012    2.0768 C   0  0
    3.1441   -8.3707    1.2064 C   0  0
    4.9993   -6.8329    1.0313 C   0  0
   -0.0963    0.3200    0.1354 C   0  0
    2.8589   -6.2582    0.0693 C   0  0
   -0.5141    2.6209    1.6566 C   0  0
    4.4759   -8.0497    1.4687 C   0  0
    0.9092   -3.1697   -1.0473 C   0  0
    0.7104   -1.9718   -0.1988 C   0  0
    1.7762   -4.0835   -0.2682 C   0  0
    0.1183   -0.8630   -0.6466 C   0  0
    2.0277   -5.3371   -0.6503 C   0  0
    1.2928   -2.2163    1.1581 C   0  0
    2.2575   -3.3872    0.9663 C   0  0
   -0.7351    3.8509    2.4705 C   0  0
    5.3392   -9.0068    2.2189 C   0  0
    0.2061    6.1108    4.6837 N   0  5
    6.4485  -10.3958    4.9995 N   0  5
    0.4521    4.2233    3.2501 N   0  0
    5.0643   -8.9918    3.6612 N   0  0
    0.3182    5.2080    3.9957 N   0  3
    5.7888   -9.7256    4.3540 N   0  3
    0.4534   -3.3632   -2.1574 O   0  0
    1.0124    1.6096   -1.2030 H   0  0
   -1.2552   -0.6928    1.6570 H   0  0
    1.2994   -7.7394    0.3097 H   0  0
    4.6129   -4.9925   -0.0027 H   0  0
    0.6427    3.6362    0.1412 H   0  0
   -1.6219    1.3383    2.9955 H   0  0
    2.7279   -9.3162    1.5440 H   0  0
    6.0359   -6.5749    1.2313 H   0  0
   -0.2521   -0.8673   -1.6718 H   0  0
    1.5913   -5.6756   -1.5901 H   0  0
    1.8120   -1.3393    1.5579 H   0  0
    0.4951   -2.4960    1.8563 H   0  0
    2.2627   -4.0412    1.8438 H   0  0
    3.2760   -3.0137    0.8052 H   0  0
   -1.0190    4.6971    1.8268 H   0  0
   -1.5773    3.7102    3.1639 H   0  0
    5.2035  -10.0312    1.8406 H   0  0
    6.4026   -8.7721    2.0644 H   0  0
  1  5  1  0
  1  9  2  0
  2  6  2  0
  2  9  1  0
  3  7  2  0
  3 10  1  0
  4  8  1  0
  4 10  2  0
  5 11  2  0
  6 11  1  0
  7 12  1  0
  8 12  2  0
  9 16  1  0
 10 17  1  0
 11 20  1  0
 12 21  1  0
 13 14  1  0
 13 15  1  0
 13 28  2  0
 14 16  2  0
 14 18  1  0
 15 17  2  0
 15 19  1  0
 18 19  1  0
 20 24  1  0
 21 25  1  0
 22 26  2  0
 23 27  2  0
 24 26  2  0
 25 27  2  0
  1 29  1  0
  2 30  1  0
  3 31  1  0
  4 32  1  0
  5 33  1  0
  6 34  1  0
  7 35  1  0
  8 36  1  0
 16 37  1  0
 17 38  1  0
 18 39  1  0
 18 40  1  0
 19 41  1  0
 19 42  1  0
 20 43  1  0
 20 44  1  0
 21 45  1  0
 21 46  1  0
M  CHG  4  22  -1  23  -1  26   1  27   1
M  END
> <Name>
BR020380

$$$$
BR020381
  SciTegic05062102053D

 48 50  0  0  0  0            999 V2000
    0.4342    1.5398   -0.2847 C   0  0
   -0.8357    0.2507    1.3162 C   0  0
    2.3356   -7.4750    0.5068 C   0  0
    4.1907   -5.9372    0.3315 C   0  0
    0.2252    2.6902    0.4758 C   0  0
   -1.0446    1.4012    2.0768 C   0  0
    3.1441   -8.3707    1.2064 C   0  0
    4.9993   -6.8329    1.0313 C   0  0
   -0.0963    0.3200    0.1354 C   0  0
    2.8589   -6.2582    0.0693 C   0  0
   -0.5141    2.6209    1.6566 C   0  0
    4.4759   -8.0497    1.4687 C   0  0
    0.9092   -3.1697   -1.0473 C   0  0
    0.7104   -1.9718   -0.1988 C   0  0
    1.7762   -4.0835   -0.2682 C   0  0
    0.1183   -0.8630   -0.6466 C   0  0
    2.0277   -5.3371   -0.6503 C   0  0
    1.2928   -2.2163    1.1581 C   0  0
    2.2575   -3.3872    0.9663 C   0  0
   -0.7351    3.8509    2.4705 C   0  0
    5.3392   -9.0068    2.2189 C   0  0
    0.3216    4.0799    3.4944 N   0  3
    5.3082   -8.8001    3.6932 N   0  3
    0.4534   -3.3632   -2.1574 O   0  0
    1.0124    1.6096   -1.2030 H   0  0
   -1.2552   -0.6928    1.6570 H   0  0
    1.2994   -7.7394    0.3097 H   0  0
    4.6129   -4.9925   -0.0027 H   0  0
    0.6427    3.6362    0.1412 H   0  0
   -1.6219    1.3383    2.9955 H   0  0
    2.7279   -9.3162    1.5440 H   0  0
    6.0359   -6.5749    1.2313 H   0  0
   -0.2521   -0.8673   -1.6718 H   0  0
    1.5913   -5.6756   -1.5901 H   0  0
    1.8120   -1.3393    1.5579 H   0  0
    0.4951   -2.4960    1.8563 H   0  0
    2.2627   -4.0412    1.8438 H   0  0
    3.2760   -3.0137    0.8052 H   0  0
   -0.7569    4.7528    1.8436 H   0  0
   -1.6881    3.8095    3.0155 H   0  0
    5.0332  -10.0480    2.0476 H   0  0
    6.3925   -8.9227    1.9182 H   0  0
    1.2405    3.8121    3.1315 H   0  0
    0.1352    3.5264    4.3352 H   0  0
    0.3577    5.0674    3.7618 H   0  0
    4.8971   -9.6111    4.1633 H   0  0
    4.7502   -7.9752    3.9303 H   0  0
    6.2546   -8.6632    4.0588 H   0  0
  1  5  1  0
  1  9  2  0
  2  6  2  0
  2  9  1  0
  3  7  2  0
  3 10  1  0
  4  8  1  0
  4 10  2  0
  5 11  2  0
  6 11  1  0
  7 12  1  0
  8 12  2  0
  9 16  1  0
 10 17  1  0
 11 20  1  0
 12 21  1  0
 13 14  1  0
 13 15  1  0
 13 24  2  0
 14 16  2  0
 14 18  1  0
 15 17  2  0
 15 19  1  0
 18 19  1  0
 20 22  1  0
 21 23  1  0
  1 25  1  0
  2 26  1  0
  3 27  1  0
  4 28  1  0
  5 29  1  0
  6 30  1  0
  7 31  1  0
  8 32  1  0
 16 33  1  0
 17 34  1  0
 18 35  1  0
 18 36  1  0
 19 37  1  0
 19 38  1  0
 20 39  1  0
 20 40  1  0
 21 41  1  0
 21 42  1  0
 22 43  1  0
 22 44  1  0
 22 45  1  0
 23 46  1  0
 23 47  1  0
 23 48  1  0
M  CHG  2  22   1  23   1
M  END
> <Name>
BR020381

$$$$
BR020382
  SciTegic05062102053D

 30 31  0  0  0  0            999 V2000
    2.7809   -1.8135    1.9859 C   0  0
    1.9804   -0.8810   -0.0942 C   0  0
    1.7031   -1.2380    2.6587 C   0  0
    0.9025   -0.3056    0.5786 C   0  0
    0.1778    2.2205    3.9983 C   0  0
    2.9197   -1.6349    0.6094 C   0  0
    0.7638   -0.4841    1.9551 C   0  0
    0.1859    3.5415    3.6271 C   0  0
    4.0429   -2.2349   -0.0932 C   0  0
   -0.3892    0.1300    2.6748 C   0  0
    0.5255    4.7249    4.4277 C   0  0
    2.0157    5.1069    4.3778 C   0  0
   -0.1849    3.6526    2.3157 N   0  0
   -0.4268    2.4302    1.8549 N   0  0
   -0.2089    1.5730    2.8654 N   0  0
    4.2199   -2.1136   -1.3085 O   0  0
    2.3794    5.4144    3.0380 O   0  0
    3.5072   -2.3991    2.5434 H   0  0
    2.0784   -0.7352   -1.1668 H   0  0
    1.6027   -1.3825    3.7311 H   0  0
    0.1751    0.2799    0.0223 H   0  0
    0.4033    1.7089    4.9233 H   0  0
    4.7655   -2.8273    0.5093 H   0  0
   -1.3365   -0.0188    2.1324 H   0  0
   -0.5387   -0.3210    3.6687 H   0  0
   -0.0662    5.6075    4.1093 H   0  0
    0.2577    4.5679    5.4921 H   0  0
    2.2124    5.9929    4.9901 H   0  0
    2.6453    4.2853    4.7349 H   0  0
    3.3213    5.6486    3.0508 H   0  0
  1  3  2  0
  1  6  1  0
  2  4  1  0
  2  6  2  0
  3  7  1  0
  4  7  2  0
  5  8  2  0
  5 15  1  0
  6  9  1  0
  7 10  1  0
  8 11  1  0
  8 13  1  0
  9 16  2  0
 10 15  1  0
 11 12  1  0
 12 17  1  0
 13 14  2  0
 14 15  1  0
  1 18  1  0
  2 19  1  0
  3 20  1  0
  4 21  1  0
  5 22  1  0
  9 23  1  0
 10 24  1  0
 10 25  1  0
 11 26  1  0
 11 27  1  0
 12 28  1  0
 12 29  1  0
 17 30  1  0
M  END
> <Name>
BR020382

$$$$
BR020383
  SciTegic05062102053D

 33 35  0  0  0  0            999 V2000
    1.8851   -1.0362   -0.1124 C   0  0
    0.7624   -0.5514    0.5583 C   0  0
    2.9652   -1.5424    0.6108 C   0  0
    0.7197   -0.5725    1.9524 C   0  0
    2.9224   -1.5636    2.0049 C   0  0
   -1.2196    1.9793    8.5261 C   0  0
    1.0695    1.9027    9.2951 C   0  0
   -1.0609    0.7286    7.9292 C   0  0
    1.2281    0.6520    8.6983 C   0  0
    0.6227   -1.2247    4.8745 C   0  0
    1.7997   -1.0786    2.6757 C   0  0
   -0.1544    2.5664    9.2090 C   0  0
    0.1629    0.0650    8.0153 C   0  0
    1.7561   -1.1004    4.1109 C   0  0
   -0.3188    3.8702    9.8322 C   0  0
    0.3332   -1.2848    7.3722 C   0  0
    2.8498   -0.9990    4.9252 N   0  0
    2.4285   -1.0579    6.1838 N   0  0
    1.0929   -1.1934    6.1512 N   0  0
    0.5846    4.4406   10.4497 O   0  0
    1.9182   -1.0208   -1.1979 H   0  0
   -0.0791   -0.1584   -0.0046 H   0  0
    3.8387   -1.9210    0.0883 H   0  0
   -0.1627   -0.1909    2.4608 H   0  0
    3.7726   -1.9614    2.5542 H   0  0
   -2.1773    2.4880    8.4533 H   0  0
    1.9064    2.3506    9.8245 H   0  0
   -1.8963    0.2785    7.3995 H   0  0
    2.1851    0.1418    8.7707 H   0  0
   -0.4270   -1.3284    4.6370 H   0  0
   -1.3121    4.3606    9.7376 H   0  0
    0.8474   -1.9819    8.0449 H   0  0
   -0.6380   -1.7376    7.1383 H   0  0
  1  2  2  0
  1  3  1  0
  2  4  1  0
  3  5  2  0
  4 11  2  0
  5 11  1  0
  6  8  2  0
  6 12  1  0
  7  9  1  0
  7 12  2  0
  8 13  1  0
  9 13  2  0
 10 14  2  0
 10 19  1  0
 11 14  1  0
 12 15  1  0
 13 16  1  0
 14 17  1  0
 15 20  2  0
 16 19  1  0
 17 18  2  0
 18 19  1  0
  1 21  1  0
  2 22  1  0
  3 23  1  0
  4 24  1  0
  5 25  1  0
  6 26  1  0
  7 27  1  0
  8 28  1  0
  9 29  1  0
 10 30  1  0
 15 31  1  0
 16 32  1  0
 16 33  1  0
M  END
> <Name>
BR020383

$$$$
BR020384
  SciTegic05062102053D

 68 72  0  0  0  0            999 V2000
    0.4342    1.5398   -0.2847 C   0  0
   -0.8357    0.2507    1.3162 C   0  0
    2.3356   -7.4750    0.5068 C   0  0
    4.1907   -5.9372    0.3315 C   0  0
    0.2252    2.6902    0.4758 C   0  0
   -1.0446    1.4012    2.0768 C   0  0
    3.1441   -8.3707    1.2064 C   0  0
    4.9993   -6.8329    1.0313 C   0  0
    0.7152    4.0245    4.5465 C   0  0
    5.7393   -8.3944    4.6496 C   0  0
   -0.0963    0.3200    0.1354 C   0  0
    2.8589   -6.2582    0.0693 C   0  0
   -0.5141    2.6209    1.6566 C   0  0
    4.4759   -8.0497    1.4687 C   0  0
    1.9635    4.5658    4.7250 C   0  0
    5.0290   -8.7072    5.7813 C   0  0
    0.9092   -3.1697   -1.0473 C   0  0
    0.7104   -1.9718   -0.1988 C   0  0
    1.7762   -4.0835   -0.2682 C   0  0
    0.1183   -0.8630   -0.6466 C   0  0
    2.0277   -5.3371   -0.6503 C   0  0
    1.2928   -2.2163    1.1581 C   0  0
    2.2575   -3.3872    0.9663 C   0  0
   -0.7351    3.8509    2.4705 C   0  0
    5.3392   -9.0068    2.2189 C   0  0
    2.7719    4.6422    5.9487 C   0  0
    5.2952   -8.3273    7.1746 C   0  0
    3.6954    3.4300    6.1647 C   0  0
    4.6345   -7.0034    7.5988 C   0  0
    2.4201    5.0690    3.5385 N   0  0
    3.9483   -9.4756    5.4477 N   0  0
    1.4855    4.8566    2.6184 N   0  0
    3.9645   -9.6532    4.1312 N   0  0
    0.4641    4.2303    3.2249 N   0  0
    5.0392   -9.0044    3.6546 N   0  0
    0.4534   -3.3632   -2.1574 O   0  0
    4.6154    3.3392    5.0844 O   0  0
    3.2224   -7.1217    7.4808 O   0  0
    1.0124    1.6096   -1.2030 H   0  0
   -1.2552   -0.6928    1.6570 H   0  0
    1.2994   -7.7394    0.3097 H   0  0
    4.6129   -4.9925   -0.0027 H   0  0
    0.6427    3.6362    0.1412 H   0  0
   -1.6219    1.3383    2.9955 H   0  0
    2.7279   -9.3162    1.5440 H   0  0
    6.0359   -6.5749    1.2313 H   0  0
    0.0180    3.5337    5.2108 H   0  0
    6.6368   -7.8186    4.4731 H   0  0
   -0.2521   -0.8673   -1.6718 H   0  0
    1.5913   -5.6756   -1.5901 H   0  0
    1.8120   -1.3393    1.5579 H   0  0
    0.4951   -2.4960    1.8563 H   0  0
    2.2627   -4.0412    1.8438 H   0  0
    3.2760   -3.0137    0.8052 H   0  0
   -1.0206    4.7108    1.8438 H   0  0
   -1.5561    3.7215    3.1937 H   0  0
    5.2179  -10.0396    1.8548 H   0  0
    6.4092   -8.7716    2.1021 H   0  0
    3.3985    5.5575    5.9586 H   0  0
    2.1220    4.7289    6.8428 H   0  0
    4.9609   -9.1184    7.8767 H   0  0
    6.3850   -8.2270    7.3521 H   0  0
    4.2730    3.5388    7.0884 H   0  0
    3.1195    2.5001    6.2171 H   0  0
    4.8649   -6.7690    8.6430 H   0  0
    4.9732   -6.1742    6.9688 H   0  0
    5.1759    2.5661    5.2588 H   0  0
    2.8466   -6.2701    7.7563 H   0  0
  1  5  1  0
  1 11  2  0
  2  6  2  0
  2 11  1  0
  3  7  2  0
  3 12  1  0
  4  8  1  0
  4 12  2  0
  5 13  2  0
  6 13  1  0
  7 14  1  0
  8 14  2  0
  9 15  2  0
  9 34  1  0
 10 16  2  0
 10 35  1  0
 11 20  1  0
 12 21  1  0
 13 24  1  0
 14 25  1  0
 15 26  1  0
 15 30  1  0
 16 27  1  0
 16 31  1  0
 17 18  1  0
 17 19  1  0
 17 36  2  0
 18 20  2  0
 18 22  1  0
 19 21  2  0
 19 23  1  0
 22 23  1  0
 24 34  1  0
 25 35  1  0
 26 28  1  0
 27 29  1  0
 28 37  1  0
 29 38  1  0
 30 32  2  0
 31 33  2  0
 32 34  1  0
 33 35  1  0
  1 39  1  0
  2 40  1  0
  3 41  1  0
  4 42  1  0
  5 43  1  0
  6 44  1  0
  7 45  1  0
  8 46  1  0
  9 47  1  0
 10 48  1  0
 20 49  1  0
 21 50  1  0
 22 51  1  0
 22 52  1  0
 23 53  1  0
 23 54  1  0
 24 55  1  0
 24 56  1  0
 25 57  1  0
 25 58  1  0
 26 59  1  0
 26 60  1  0
 27 61  1  0
 27 62  1  0
 28 63  1  0
 28 64  1  0
 29 65  1  0
 29 66  1  0
 37 67  1  0
 38 68  1  0
M  END
> <Name>
BR020384

$$$$
BR020385
  SciTegic05062102053D

 74 80  0  0  0  0            999 V2000
    4.0959    4.6801    8.3620 C   0  0
    6.0009   -7.5030    9.7046 C   0  0
    3.2024    3.6391    8.1097 C   0  0
    4.2838    5.6837    7.4116 C   0  0
    6.3459   -6.6949    8.6213 C   0  0
    5.3347   -8.7097    9.4904 C   0  0
    2.4970    3.6015    6.9070 C   0  0
    3.5784    5.6461    6.2088 C   0  0
    6.0247   -7.0934    7.3238 C   0  0
    5.0135   -9.1082    8.1928 C   0  0
    0.4342    1.5398   -0.2847 C   0  0
   -0.8357    0.2507    1.3162 C   0  0
    2.3356   -7.4750    0.5068 C   0  0
    4.1907   -5.9372    0.3315 C   0  0
    0.2252    2.6902    0.4758 C   0  0
   -1.0446    1.4012    2.0768 C   0  0
    3.1441   -8.3707    1.2064 C   0  0
    4.9993   -6.8329    1.0313 C   0  0
    0.7153    4.0245    4.5465 C   0  0
    5.7392   -8.3945    4.6497 C   0  0
    2.6850    4.6050    5.9565 C   0  0
    5.3585   -8.3001    7.1095 C   0  0
   -0.0963    0.3200    0.1354 C   0  0
    2.8589   -6.2582    0.0693 C   0  0
   -0.5141    2.6209    1.6566 C   0  0
    4.4759   -8.0497    1.4687 C   0  0
    1.9632    4.5667    4.7251 C   0  0
    5.0294   -8.7082    5.7814 C   0  0
    0.9092   -3.1697   -1.0473 C   0  0
    0.7104   -1.9718   -0.1988 C   0  0
    1.7762   -4.0835   -0.2682 C   0  0
    0.1183   -0.8630   -0.6466 C   0  0
    2.0277   -5.3371   -0.6503 C   0  0
    1.2928   -2.2163    1.1581 C   0  0
    2.2575   -3.3872    0.9663 C   0  0
   -0.7351    3.8509    2.4705 C   0  0
    5.3392   -9.0068    2.2189 C   0  0
    2.4195    5.0704    3.5387 N   0  0
    3.9490   -9.4770    5.4478 N   0  0
    1.4851    4.8574    2.6185 N   0  0
    3.9650   -9.6541    4.1312 N   0  0
    0.4641    4.2303    3.2249 N   0  0
    5.0392   -9.0044    3.6546 N   0  0
    0.4534   -3.3632   -2.1574 O   0  0
    4.6444    4.7102    9.2989 H   0  0
    6.2519   -7.1934   10.7150 H   0  0
    3.0550    2.8584    8.8501 H   0  0
    4.9786    6.4948    7.6088 H   0  0
    6.8656   -5.7560    8.7878 H   0  0
    5.0674   -9.3393   10.3339 H   0  0
    1.8041    2.7833    6.7250 H   0  0
    3.7362    6.4360    5.4781 H   0  0
    6.3004   -6.4524    6.4896 H   0  0
    4.4941  -10.0518    8.0426 H   0  0
    1.0124    1.6096   -1.2030 H   0  0
   -1.2552   -0.6928    1.6570 H   0  0
    1.2994   -7.7394    0.3097 H   0  0
    4.6129   -4.9925   -0.0027 H   0  0
    0.6427    3.6362    0.1412 H   0  0
   -1.6219    1.3383    2.9955 H   0  0
    2.7279   -9.3162    1.5440 H   0  0
    6.0359   -6.5749    1.2313 H   0  0
    0.0152    3.5342    5.2085 H   0  0
    6.6372   -7.8200    4.4698 H   0  0
   -0.2521   -0.8673   -1.6718 H   0  0
    1.5913   -5.6756   -1.5901 H   0  0
    1.8120   -1.3393    1.5579 H   0  0
    0.4951   -2.4960    1.8563 H   0  0
    2.2627   -4.0412    1.8438 H   0  0
    3.2760   -3.0137    0.8052 H   0  0
   -1.0206    4.7108    1.8438 H   0  0
   -1.5561    3.7215    3.1937 H   0  0
    5.2179  -10.0396    1.8548 H   0  0
    6.4092   -8.7716    2.1021 H   0  0
  1  3  2  0
  1  4  1  0
  2  5  2  0
  2  6  1  0
  3  7  1  0
  4  8  2  0
  5  9  1  0
  6 10  2  0
  7 21  2  0
  8 21  1  0
  9 22  2  0
 10 22  1  0
 11 15  1  0
 11 23  2  0
 12 16  2  0
 12 23  1  0
 13 17  2  0
 13 24  1  0
 14 18  1  0
 14 24  2  0
 15 25  2  0
 16 25  1  0
 17 26  1  0
 18 26  2  0
 19 27  2  0
 19 42  1  0
 20 28  2  0
 20 43  1  0
 21 27  1  0
 22 28  1  0
 23 32  1  0
 24 33  1  0
 25 36  1  0
 26 37  1  0
 27 38  1  0
 28 39  1  0
 29 30  1  0
 29 31  1  0
 29 44  2  0
 30 32  2  0
 30 34  1  0
 31 33  2  0
 31 35  1  0
 34 35  1  0
 36 42  1  0
 37 43  1  0
 38 40  2  0
 39 41  2  0
 40 42  1  0
 41 43  1  0
  1 45  1  0
  2 46  1  0
  3 47  1  0
  4 48  1  0
  5 49  1  0
  6 50  1  0
  7 51  1  0
  8 52  1  0
  9 53  1  0
 10 54  1  0
 11 55  1  0
 12 56  1  0
 13 57  1  0
 14 58  1  0
 15 59  1  0
 16 60  1  0
 17 61  1  0
 18 62  1  0
 19 63  1  0
 20 64  1  0
 32 65  1  0
 33 66  1  0
 34 67  1  0
 34 68  1  0
 35 69  1  0
 35 70  1  0
 36 71  1  0
 36 72  1  0
 37 73  1  0
 37 74  1  0
M  END
> <Name>
BR020385

$$$$
BR020386
  SciTegic05062102053D

 18 18  0  0  0  0            999 V2000
    4.0253   -2.2191   -0.0815 C   0  0
    1.8851   -1.0363   -0.1124 C   0  0
    2.8783   -1.6520    2.0022 C   0  0
    0.8066   -0.4630    0.5610 C   0  0
    1.7997   -1.0786    2.6757 C   0  0
    2.9210   -1.6309    0.6081 C   0  0
    0.7638   -0.4841    1.9551 C   0  0
   -0.3885    0.1302    2.6751 C   0  0
   -2.0264    2.7065    3.9287 N   0  5
    4.9223   -2.6970   -0.6418 N   0  0
   -0.3044    1.5957    2.7125 N   0  0
   -1.2046    2.1696    3.3478 N   0  3
    1.9032   -1.0137   -1.1995 H   0  0
    3.6787   -2.1102    2.5784 H   0  0
    0.0036   -0.0028   -0.0086 H   0  0
    1.7757   -1.0981    3.7621 H   0  0
   -1.3402   -0.1605    2.2052 H   0  0
   -0.4423   -0.2421    3.7088 H   0  0
  1  6  1  0
  1 10  3  0
  2  4  2  0
  2  6  1  0
  3  5  1  0
  3  6  2  0
  4  7  1  0
  5  7  2  0
  7  8  1  0
  8 11  1  0
  9 12  2  0
 11 12  2  0
  2 13  1  0
  3 14  1  0
  4 15  1  0
  5 16  1  0
  8 17  1  0
  8 18  1  0
M  CHG  2   9  -1  12   1
M  END
> <Name>
BR020386

$$$$
BR020387
  SciTegic05062102053D

 19 19  0  0  0  0            999 V2000
    4.0253   -2.2191   -0.0815 C   0  0
    1.8851   -1.0363   -0.1124 C   0  0
    2.8783   -1.6520    2.0022 C   0  0
    0.8066   -0.4630    0.5610 C   0  0
    1.7997   -1.0786    2.6757 C   0  0
    2.9210   -1.6309    0.6081 C   0  0
    0.7638   -0.4841    1.9551 C   0  0
   -0.3885    0.1302    2.6751 C   0  0
    4.9223   -2.6970   -0.6418 N   0  0
   -0.1840    1.5692    2.9990 N   0  3
    1.9032   -1.0137   -1.1995 H   0  0
    3.6787   -2.1102    2.5784 H   0  0
    0.0036   -0.0028   -0.0086 H   0  0
    1.7757   -1.0981    3.7621 H   0  0
   -1.3118    0.0764    2.0822 H   0  0
   -0.5846   -0.3754    3.6306 H   0  0
   -0.1540    2.1313    2.1440 H   0  0
    0.6972    1.7040    3.5024 H   0  0
   -0.9458    1.9192    3.5864 H   0  0
  1  6  1  0
  1  9  3  0
  2  4  2  0
  2  6  1  0
  3  5  1  0
  3  6  2  0
  4  7  1  0
  5  7  2  0
  7  8  1  0
  8 10  1  0
  2 11  1  0
  3 12  1  0
  4 13  1  0
  5 14  1  0
  8 15  1  0
  8 16  1  0
 10 17  1  0
 10 18  1  0
 10 19  1  0
M  CHG  1  10   1
M  END
> <Name>
BR020387

$$$$
BR020388
  SciTegic05062102053D

 33 33  0  0  0  0            999 V2000
   -2.3551    5.9483    7.2202 C   0  0
   -2.1952    3.5186    7.4473 C   0  0
   -3.0552    4.4723    5.4008 C   0  0
   -2.3732    2.2375    6.9251 C   0  0
   -3.2331    3.1912    4.8786 C   0  0
   -2.5362    4.6360    6.6851 C   0  0
   -2.8921    2.0738    5.6408 C   0  0
   -1.2959    0.2301    3.4066 C   0  0
    0.8669    1.0639    1.7401 C   0  0
    1.8555   -1.1972    2.2084 C   0  0
   -0.3465   -1.0181    1.0138 C   0  0
   -3.0822    0.6949    5.0781 C   0  0
    0.5625   -0.3960    2.0728 C   0  0
   -2.2079    7.0142    7.6550 N   0  0
   -1.8302    0.0997    4.6711 N   0  0
   -1.7981    0.8540    2.4775 O   0  0
   -0.1079   -0.4447    3.3329 O   0  0
   -1.7914    3.6300    8.4508 H   0  0
   -3.3244    5.3333    4.7934 H   0  0
   -2.1056    1.3727    7.5264 H   0  0
   -3.6363    3.0731    3.8762 H   0  0
   -0.0587    1.6423    1.6420 H   0  0
    1.4893    1.5317    2.5099 H   0  0
    1.3860    1.1458    0.7783 H   0  0
    1.6419   -2.2453    2.4471 H   0  0
    2.4688   -0.8121    3.0311 H   0  0
    2.4491   -1.1650    1.2890 H   0  0
   -0.5650   -2.0653    1.2522 H   0  0
   -1.2950   -0.4779    0.9287 H   0  0
    0.1425   -1.0198    0.0329 H   0  0
   -3.5437    0.0350    5.8208 H   0  0
   -3.7431    0.7143    4.2051 H   0  0
   -1.3146   -0.4456    5.3550 H   0  0
  1  6  1  0
  1 14  3  0
  2  4  2  0
  2  6  1  0
  3  5  1  0
  3  6  2  0
  4  7  1  0
  5  7  2  0
  7 12  1  0
  8 15  1  0
  8 16  2  0
  8 17  1  0
  9 13  1  0
 10 13  1  0
 11 13  1  0
 12 15  1  0
 13 17  1  0
  2 18  1  0
  3 19  1  0
  4 20  1  0
  5 21  1  0
  9 22  1  0
  9 23  1  0
  9 24  1  0
 10 25  1  0
 10 26  1  0
 10 27  1  0
 11 28  1  0
 11 29  1  0
 11 30  1  0
 12 31  1  0
 12 32  1  0
 15 33  1  0
M  END
> <Name>
BR020388

$$$$
BR020389
  SciTegic05062102053D

 35 35  0  0  0  0            999 V2000
   -2.1948    3.5175    7.4480 C   0  0
   -3.0545    4.4725    5.4020 C   0  0
   -2.3732    2.2367    6.9252 C   0  0
   -3.2328    3.1916    4.8792 C   0  0
   -2.5355    4.6354    6.6865 C   0  0
   -2.8921    2.0738    5.6408 C   0  0
   -1.2959    0.2301    3.4066 C   0  0
   -2.3451    6.0051    7.2447 C   0  0
    0.8669    1.0639    1.7401 C   0  0
    1.8555   -1.1972    2.2084 C   0  0
   -0.3465   -1.0181    1.0138 C   0  0
   -3.0822    0.6949    5.0781 C   0  0
    0.5625   -0.3960    2.0728 C   0  0
   -1.8302    0.0997    4.6711 N   0  0
   -1.7981    0.8540    2.4775 O   0  0
   -0.1079   -0.4447    3.3329 O   0  0
   -1.7903    3.6350    8.4500 H   0  0
   -3.3214    5.3381    4.8014 H   0  0
   -2.1036    1.3716    7.5250 H   0  0
   -3.6380    3.0736    3.8776 H   0  0
   -1.3444    6.3818    6.9997 H   0  0
   -3.0885    6.7060    6.8433 H   0  0
   -2.4611    6.0101    8.3364 H   0  0
   -0.0587    1.6423    1.6420 H   0  0
    1.4893    1.5317    2.5099 H   0  0
    1.3860    1.1458    0.7783 H   0  0
    1.6419   -2.2453    2.4471 H   0  0
    2.4688   -0.8121    3.0311 H   0  0
    2.4491   -1.1650    1.2890 H   0  0
   -0.5650   -2.0653    1.2522 H   0  0
   -1.2950   -0.4779    0.9287 H   0  0
    0.1425   -1.0198    0.0329 H   0  0
   -3.5437    0.0350    5.8208 H   0  0
   -3.7431    0.7143    4.2051 H   0  0
   -1.3146   -0.4456    5.3550 H   0  0
  1  3  2  0
  1  5  1  0
  2  4  1  0
  2  5  2  0
  3  6  1  0
  4  6  2  0
  5  8  1  0
  6 12  1  0
  7 14  1  0
  7 15  2  0
  7 16  1  0
  9 13  1  0
 10 13  1  0
 11 13  1  0
 12 14  1  0
 13 16  1  0
  1 17  1  0
  2 18  1  0
  3 19  1  0
  4 20  1  0
  8 21  1  0
  8 22  1  0
  8 23  1  0
  9 24  1  0
  9 25  1  0
  9 26  1  0
 10 27  1  0
 10 28  1  0
 10 29  1  0
 11 30  1  0
 11 31  1  0
 11 32  1  0
 12 33  1  0
 12 34  1  0
 14 35  1  0
M  END
> <Name>
BR020389

$$$$
BR020390
  SciTegic05062102053D

 52 52  0  0  0  0            999 V2000
   -5.2382   -0.4127    5.7275 C   0  0
   -5.9760   -1.2625    6.5515 C   0  0
   -3.2541   -0.8763    7.0258 C   0  0
   -3.9920   -1.7261    7.8499 C   0  0
   -3.8772   -0.2196    5.9646 C   0  0
   -5.3530   -1.9191    7.6128 C   0  0
   -1.6695   -0.6640    3.5424 C   0  0
   -6.5952   -4.9679    7.3071 C   0  0
   -0.5258   -3.1444    2.7121 C   0  0
   -0.7877   -2.2693    0.3723 C   0  0
    0.7041   -1.0682    1.9971 C   0  0
   -6.6132   -6.5826    4.9529 C   0  0
   -6.0700   -8.4969    6.4858 C   0  0
   -8.2326   -7.2494    6.7606 C   0  0
   -3.0822    0.6949    5.0781 C   0  0
   -6.1430   -2.8262    8.4944 C   0  0
   -0.5721   -1.8930    1.8365 C   0  0
   -6.7599   -7.1395    6.3682 C   0  0
   -2.7948    0.0911    3.7974 N   0  0
   -5.8836   -4.2172    8.2224 N   0  0
   -0.7808   -0.9200    4.3482 O   0  0
   -7.5240   -4.5602    6.6174 O   0  0
   -1.6839   -1.0945    2.2437 O   0  0
   -6.1108   -6.2454    7.2793 O   0  0
   -5.7318    0.0943    4.9025 H   0  0
   -7.0361   -1.4057    6.3603 H   0  0
   -2.1944   -0.7306    7.2184 H   0  0
   -3.4987   -2.2340    8.6745 H   0  0
   -0.3712   -2.8786    3.7639 H   0  0
   -1.4496   -3.7267    2.6328 H   0  0
    0.3146   -3.7886    2.4293 H   0  0
   -0.8216   -1.3745   -0.2596 H   0  0
   -1.7487   -2.7788    0.2376 H   0  0
    0.0072   -2.9250    0.0024 H   0  0
    0.6711   -0.1705    1.3691 H   0  0
    0.8557   -0.7578    3.0360 H   0  0
    1.5811   -1.6402    1.6730 H   0  0
   -7.1071   -5.6083    4.8644 H   0  0
   -5.5613   -6.4660    4.6723 H   0  0
   -7.0956   -7.2412    4.2216 H   0  0
   -6.1728   -8.9002    7.4997 H   0  0
   -4.9942   -8.4056    6.2975 H   0  0
   -6.4851   -9.2235    5.7799 H   0  0
   -8.3380   -7.6489    7.7757 H   0  0
   -8.7350   -6.2777    6.7177 H   0  0
   -8.7614   -7.9444    6.0983 H   0  0
   -3.6280    1.6272    4.8966 H   0  0
   -2.1279    0.9621    5.5440 H   0  0
   -5.9119   -2.6486    9.5541 H   0  0
   -7.2231   -2.6650    8.3741 H   0  0
   -3.4590    0.2307    3.0423 H   0  0
   -5.1322   -4.6731    8.7344 H   0  0
  1  2  2  0
  1  5  1  0
  2  6  1  0
  3  4  1  0
  3  5  2  0
  4  6  2  0
  5 15  1  0
  6 16  1  0
  7 19  1  0
  7 21  2  0
  7 23  1  0
  8 20  1  0
  8 22  2  0
  8 24  1  0
  9 17  1  0
 10 17  1  0
 11 17  1  0
 12 18  1  0
 13 18  1  0
 14 18  1  0
 15 19  1  0
 16 20  1  0
 17 23  1  0
 18 24  1  0
  1 25  1  0
  2 26  1  0
  3 27  1  0
  4 28  1  0
  9 29  1  0
  9 30  1  0
  9 31  1  0
 10 32  1  0
 10 33  1  0
 10 34  1  0
 11 35  1  0
 11 36  1  0
 11 37  1  0
 12 38  1  0
 12 39  1  0
 12 40  1  0
 13 41  1  0
 13 42  1  0
 13 43  1  0
 14 44  1  0
 14 45  1  0
 14 46  1  0
 15 47  1  0
 15 48  1  0
 16 49  1  0
 16 50  1  0
 19 51  1  0
 20 52  1  0
M  END
> <Name>
BR020390

$$$$
BR020391
  SciTegic05062102053D

 34 34  0  0  0  0            999 V2000
   -2.1954    3.5179    7.4480 C   0  0
   -3.0557    4.4724    5.4020 C   0  0
   -2.3732    2.2370    6.9252 C   0  0
   -3.2334    3.1915    4.8792 C   0  0
   -2.5368    4.6356    6.6864 C   0  0
   -2.8921    2.0738    5.6408 C   0  0
   -2.3514    5.9717    7.2303 C   0  0
   -1.2959    0.2301    3.4066 C   0  0
    0.8669    1.0639    1.7401 C   0  0
    1.8555   -1.1972    2.2084 C   0  0
   -0.3465   -1.0181    1.0138 C   0  0
   -3.0822    0.6949    5.0781 C   0  0
    0.5625   -0.3960    2.0728 C   0  0
   -1.8302    0.0997    4.6711 N   0  0
   -2.6336    6.9983    6.6063 O   0  0
   -1.7981    0.8540    2.4775 O   0  0
   -0.1079   -0.4447    3.3329 O   0  0
   -1.7902    3.6342    8.4498 H   0  0
   -3.3252    5.3360    4.7996 H   0  0
   -2.1043    1.3719    7.5254 H   0  0
   -3.6380    3.0735    3.8773 H   0  0
   -1.9344    6.0522    8.2578 H   0  0
   -0.0587    1.6423    1.6420 H   0  0
    1.4893    1.5317    2.5099 H   0  0
    1.3860    1.1458    0.7783 H   0  0
    1.6419   -2.2453    2.4471 H   0  0
    2.4688   -0.8121    3.0311 H   0  0
    2.4491   -1.1650    1.2890 H   0  0
   -0.5650   -2.0653    1.2522 H   0  0
   -1.2950   -0.4779    0.9287 H   0  0
    0.1425   -1.0198    0.0329 H   0  0
   -3.5437    0.0350    5.8208 H   0  0
   -3.7431    0.7143    4.2051 H   0  0
   -1.3146   -0.4456    5.3550 H   0  0
  1  3  2  0
  1  5  1  0
  2  4  1  0
  2  5  2  0
  3  6  1  0
  4  6  2  0
  5  7  1  0
  6 12  1  0
  7 15  2  0
  8 14  1  0
  8 16  2  0
  8 17  1  0
  9 13  1  0
 10 13  1  0
 11 13  1  0
 12 14  1  0
 13 17  1  0
  1 18  1  0
  2 19  1  0
  3 20  1  0
  4 21  1  0
  7 22  1  0
  9 23  1  0
  9 24  1  0
  9 25  1  0
 10 26  1  0
 10 27  1  0
 10 28  1  0
 11 29  1  0
 11 30  1  0
 11 31  1  0
 12 32  1  0
 12 33  1  0
 14 34  1  0
M  END
> <Name>
BR020391

$$$$
BR020392
  SciTegic05062102053D

 76 78  0  0  0  0            999 V2000
    0.4342    1.5398   -0.2847 C   0  0
   -0.8357    0.2507    1.3162 C   0  0
    2.3356   -7.4750    0.5068 C   0  0
    4.1907   -5.9372    0.3315 C   0  0
    0.2252    2.6902    0.4758 C   0  0
   -1.0446    1.4012    2.0768 C   0  0
    3.1441   -8.3707    1.2064 C   0  0
    4.9993   -6.8329    1.0313 C   0  0
   -0.0963    0.3200    0.1354 C   0  0
    2.8589   -6.2582    0.0693 C   0  0
   -0.5141    2.6209    1.6566 C   0  0
    4.4759   -8.0497    1.4687 C   0  0
    0.9092   -3.1697   -1.0473 C   0  0
    0.7104   -1.9718   -0.1988 C   0  0
    1.7762   -4.0835   -0.2682 C   0  0
    0.1183   -0.8630   -0.6466 C   0  0
    2.0277   -5.3371   -0.6503 C   0  0
    0.7242    3.7973    4.4875 C   0  0
    5.6653   -8.1949    4.5502 C   0  0
    1.2928   -2.2163    1.1581 C   0  0
    2.2575   -3.3872    0.9663 C   0  0
    2.4969    2.4490    6.2735 C   0  0
    3.6542    4.6665    6.5035 C   0  0
    1.2613    4.4236    7.2269 C   0  0
    5.4533   -6.1837    6.5652 C   0  0
    5.0439   -8.0835    8.1566 C   0  0
    7.2303   -7.9283    6.9303 C   0  0
   -0.7351    3.8509    2.4705 C   0  0
    5.3392   -9.0068    2.2189 C   0  0
    2.3248    3.9667    6.2294 C   0  0
    5.7281   -7.6577    6.8594 C   0  0
    0.4400    4.2373    3.2096 N   0  0
    5.0469   -9.0182    3.6298 N   0  0
    0.4534   -3.3632   -2.1574 O   0  0
    0.0296    3.0347    5.1513 O   0  0
    6.5280   -7.3608    4.2961 O   0  0
    1.9045    4.3395    4.9122 O   0  0
    5.1725   -8.4451    5.8001 O   0  0
    1.0124    1.6096   -1.2030 H   0  0
   -1.2552   -0.6928    1.6570 H   0  0
    1.2994   -7.7394    0.3097 H   0  0
    4.6129   -4.9925   -0.0027 H   0  0
    0.6427    3.6362    0.1412 H   0  0
   -1.6219    1.3383    2.9955 H   0  0
    2.7279   -9.3162    1.5440 H   0  0
    6.0359   -6.5749    1.2313 H   0  0
   -0.2521   -0.8673   -1.6718 H   0  0
    1.5913   -5.6756   -1.5901 H   0  0
    1.8120   -1.3393    1.5579 H   0  0
    0.4951   -2.4960    1.8563 H   0  0
    2.2627   -4.0412    1.8438 H   0  0
    3.2760   -3.0137    0.8052 H   0  0
    1.5448    1.9430    6.0772 H   0  0
    3.2316    2.1049    5.5383 H   0  0
    2.8220    2.1211    7.2675 H   0  0
    3.5354    5.7556    6.4729 H   0  0
    4.3935    4.4149    5.7346 H   0  0
    4.0625    4.3896    7.4809 H   0  0
    1.1377    5.5122    7.1955 H   0  0
    0.2909    3.9596    7.0228 H   0  0
    1.5570    4.1755    8.2527 H   0  0
    5.9427   -5.8742    5.6348 H   0  0
    4.3805   -5.9831    6.4772 H   0  0
    5.8611   -5.5444    7.3565 H   0  0
    5.2384   -9.1404    8.3716 H   0  0
    3.9557   -7.9800    8.0761 H   0  0
    5.3867   -7.4876    9.0086 H   0  0
    7.4277   -8.9855    7.1413 H   0  0
    7.7325   -7.6631    5.9943 H   0  0
    7.6906   -7.3590    7.7459 H   0  0
   -1.0191    4.7010    1.8345 H   0  0
   -1.5479    3.7129    3.1968 H   0  0
    5.2093  -10.0328    1.8468 H   0  0
    6.4043   -8.7616    2.1072 H   0  0
    1.0988    4.8712    2.7639 H   0  0
    4.3439   -9.6710    3.9678 H   0  0
  1  5  1  0
  1  9  2  0
  2  6  2  0
  2  9  1  0
  3  7  2  0
  3 10  1  0
  4  8  1  0
  4 10  2  0
  5 11  2  0
  6 11  1  0
  7 12  1  0
  8 12  2  0
  9 16  1  0
 10 17  1  0
 11 28  1  0
 12 29  1  0
 13 14  1  0
 13 15  1  0
 13 34  2  0
 14 16  2  0
 14 20  1  0
 15 17  2  0
 15 21  1  0
 18 32  1  0
 18 35  2  0
 18 37  1  0
 19 33  1  0
 19 36  2  0
 19 38  1  0
 20 21  1  0
 22 30  1  0
 23 30  1  0
 24 30  1  0
 25 31  1  0
 26 31  1  0
 27 31  1  0
 28 32  1  0
 29 33  1  0
 30 37  1  0
 31 38  1  0
  1 39  1  0
  2 40  1  0
  3 41  1  0
  4 42  1  0
  5 43  1  0
  6 44  1  0
  7 45  1  0
  8 46  1  0
 16 47  1  0
 17 48  1  0
 20 49  1  0
 20 50  1  0
 21 51  1  0
 21 52  1  0
 22 53  1  0
 22 54  1  0
 22 55  1  0
 23 56  1  0
 23 57  1  0
 23 58  1  0
 24 59  1  0
 24 60  1  0
 24 61  1  0
 25 62  1  0
 25 63  1  0
 25 64  1  0
 26 65  1  0
 26 66  1  0
 26 67  1  0
 27 68  1  0
 27 69  1  0
 27 70  1  0
 28 71  1  0
 28 72  1  0
 29 73  1  0
 29 74  1  0
 32 75  1  0
 33 76  1  0
M  END
> <Name>
BR020392

$$$$
BR020393
  SciTegic05062102053D

 26 25  0  0  0  0            999 V2000
   -1.1121   -1.3679    3.4454 C   0  0
   -0.4645   -0.0646    0.9894 C   0  0
    1.6273    0.6910    2.1567 C   0  0
    1.2036   -1.7604    1.8118 C   0  0
   -2.7531   -2.1477    5.1482 C   0  0
   -4.0787   -1.4761    4.8392 C   0  0
    0.5609   -0.3988    2.0719 C   0  0
   -1.6673   -1.3034    4.7060 N   0  0
   -1.4558   -2.1318    2.5494 O   0  0
   -4.1593   -0.2438    5.5441 O   0  0
   -0.1082   -0.4451    3.3327 O   0  0
   -1.2317   -0.8445    0.9253 H   0  0
   -0.9578    0.8935    1.1830 H   0  0
    0.0103   -0.0162    0.0027 H   0  0
    2.3651    0.4554    2.9322 H   0  0
    1.1816    1.6524    2.4367 H   0  0
    2.1531    0.8168    1.2047 H   0  0
    1.9391   -2.0003    2.5882 H   0  0
    0.4566   -2.5604    1.7845 H   0  0
    1.7476   -1.7592    0.8603 H   0  0
   -2.6371   -2.3211    6.2228 H   0  0
   -2.6785   -3.1036    4.6210 H   0  0
   -4.9065   -2.1101    5.1716 H   0  0
   -4.1891   -1.2770    3.7683 H   0  0
   -1.2918   -0.6242    5.3605 H   0  0
   -5.0172    0.1509    5.3198 H   0  0
  1  8  1  0
  1  9  2  0
  1 11  1  0
  2  7  1  0
  3  7  1  0
  4  7  1  0
  5  6  1  0
  5  8  1  0
  6 10  1  0
  7 11  1  0
  2 12  1  0
  2 13  1  0
  2 14  1  0
  3 15  1  0
  3 16  1  0
  3 17  1  0
  4 18  1  0
  4 19  1  0
  4 20  1  0
  5 21  1  0
  5 22  1  0
  6 23  1  0
  6 24  1  0
  8 25  1  0
 10 26  1  0
M  END
> <Name>
BR020393

$$$$
BR020394
  SciTegic05062102053D

 29 28  0  0  0  0            999 V2000
   -1.2959    0.2301    3.4066 C   0  0
    0.8671    1.0634    1.7402 C   0  0
    1.8550   -1.1980    2.2081 C   0  0
   -0.3470   -1.0181    1.0136 C   0  0
   -4.2719   -0.2234    4.8338 C   0  0
   -3.0820    0.6952    5.0782 C   0  0
   -4.1751   -1.5337    5.6059 C   0  0
    0.5622   -0.3965    2.0727 C   0  0
   -1.8302    0.0997    4.6711 N   0  0
   -1.7979    0.8543    2.4776 O   0  0
   -5.3144   -2.3281    5.3034 O   0  0
   -0.1082   -0.4451    3.3327 O   0  0
   -0.0583    1.6422    1.6421 H   0  0
    1.4897    1.5309    2.5100 H   0  0
    1.3862    1.1452    0.7784 H   0  0
    1.6410   -2.2461    2.4467 H   0  0
    2.4685   -0.8133    3.0309 H   0  0
    2.4485   -1.1659    1.2887 H   0  0
   -0.5658   -2.0653    1.2519 H   0  0
   -1.2953   -0.4776    0.9286 H   0  0
    0.1420   -1.0198    0.0327 H   0  0
   -5.1945    0.2936    5.1257 H   0  0
   -4.3755   -0.4396    3.7629 H   0  0
   -3.1967    1.6200    4.5043 H   0  0
   -2.9987    0.9580    6.1376 H   0  0
   -3.2790   -2.0952    5.3241 H   0  0
   -4.1564   -1.3499    6.6849 H   0  0
   -1.3147   -0.4459    5.3549 H   0  0
   -5.2231   -3.1521    5.8085 H   0  0
  1  9  1  0
  1 10  2  0
  1 12  1  0
  2  8  1  0
  3  8  1  0
  4  8  1  0
  5  6  1  0
  5  7  1  0
  6  9  1  0
  7 11  1  0
  8 12  1  0
  2 13  1  0
  2 14  1  0
  2 15  1  0
  3 16  1  0
  3 17  1  0
  3 18  1  0
  4 19  1  0
  4 20  1  0
  4 21  1  0
  5 22  1  0
  5 23  1  0
  6 24  1  0
  6 25  1  0
  7 26  1  0
  7 27  1  0
  9 28  1  0
 11 29  1  0
M  END
> <Name>
BR020394

$$$$
BR020395
  SciTegic05062102053D

 32 31  0  0  0  0            999 V2000
   -1.2959    0.2301    3.4066 C   0  0
    0.8671    1.0634    1.7402 C   0  0
    1.8550   -1.1980    2.2081 C   0  0
   -0.3470   -1.0181    1.0136 C   0  0
   -5.0015   -1.4664    1.1485 C   0  0
   -3.0820    0.6952    5.0782 C   0  0
   -4.2187   -0.2730    4.8062 C   0  0
    0.5622   -0.3965    2.0727 C   0  0
   -1.8302    0.0997    4.6711 N   0  0
   -1.7979    0.8543    2.4776 O   0  0
   -6.7419   -0.9529    3.0347 O   0  0
   -5.1514   -2.9039    3.3307 O   0  0
   -0.1082   -0.4451    3.3327 O   0  0
   -4.2874   -0.5407    3.4113 O   0  0
   -5.4383   -1.5620    2.8659 S   0  0
   -0.0583    1.6422    1.6421 H   0  0
    1.4897    1.5309    2.5100 H   0  0
    1.3862    1.1452    0.7784 H   0  0
    1.6410   -2.2461    2.4467 H   0  0
    2.4685   -0.8133    3.0309 H   0  0
    2.4485   -1.1659    1.2887 H   0  0
   -0.5658   -2.0653    1.2519 H   0  0
   -1.2953   -0.4776    0.9286 H   0  0
    0.1420   -1.0198    0.0327 H   0  0
   -4.0198   -1.9242    1.0168 H   0  0
   -5.7549   -2.0044    0.5711 H   0  0
   -4.9753   -0.4151    0.8579 H   0  0
   -3.2144    1.6289    4.5224 H   0  0
   -3.0211    0.9203    6.1473 H   0  0
   -5.1709    0.1714    5.1122 H   0  0
   -4.0784   -1.2187    5.3397 H   0  0
   -1.3147   -0.4459    5.3549 H   0  0
  1  9  1  0
  1 10  2  0
  1 13  1  0
  2  8  1  0
  3  8  1  0
  4  8  1  0
  5 15  1  0
  6  7  1  0
  6  9  1  0
  7 14  1  0
  8 13  1  0
 11 15  2  0
 12 15  2  0
 14 15  1  0
  2 16  1  0
  2 17  1  0
  2 18  1  0
  3 19  1  0
  3 20  1  0
  3 21  1  0
  4 22  1  0
  4 23  1  0
  4 24  1  0
  5 25  1  0
  5 26  1  0
  5 27  1  0
  6 28  1  0
  6 29  1  0
  7 30  1  0
  7 31  1  0
  9 32  1  0
M  END
> <Name>
BR020395

$$$$
BR020396
  SciTegic05062102053D

 35 34  0  0  0  0            999 V2000
   -1.2959    0.2301    3.4066 C   0  0
    0.8669    1.0639    1.7401 C   0  0
    1.8555   -1.1972    2.2084 C   0  0
   -0.3465   -1.0181    1.0138 C   0  0
   -6.9989   -4.2387    5.2535 C   0  0
   -4.2718   -0.2242    4.8338 C   0  0
   -3.0822    0.6949    5.0781 C   0  0
   -4.1745   -1.5343    5.6061 C   0  0
    0.5625   -0.3960    2.0728 C   0  0
   -1.8302    0.0997    4.6711 N   0  0
   -1.7981    0.8540    2.4775 O   0  0
   -5.6779   -3.6281    7.4290 O   0  0
   -4.4296   -4.6791    5.4895 O   0  0
   -0.1079   -0.4447    3.3329 O   0  0
   -5.3136   -2.3292    5.3036 O   0  0
   -5.4546   -3.7957    6.0073 S   0  0
   -0.0587    1.6423    1.6420 H   0  0
    1.4893    1.5317    2.5099 H   0  0
    1.3860    1.1458    0.7783 H   0  0
    1.6419   -2.2453    2.4471 H   0  0
    2.4688   -0.8121    3.0311 H   0  0
    2.4491   -1.1650    1.2890 H   0  0
   -0.5650   -2.0653    1.2522 H   0  0
   -1.2950   -0.4779    0.9287 H   0  0
    0.1425   -1.0198    0.0329 H   0  0
   -6.8353   -4.3660    4.1823 H   0  0
   -7.3454   -5.1716    5.7009 H   0  0
   -7.7149   -3.4366    5.4384 H   0  0
   -5.1946    0.2926    5.1256 H   0  0
   -4.3752   -0.4405    3.7629 H   0  0
   -3.1972    1.6195    4.5040 H   0  0
   -2.9991    0.9578    6.1374 H   0  0
   -3.2783   -2.0956    5.3243 H   0  0
   -4.1560   -1.3503    6.6850 H   0  0
   -1.3146   -0.4456    5.3550 H   0  0
  1 10  1  0
  1 11  2  0
  1 14  1  0
  2  9  1  0
  3  9  1  0
  4  9  1  0
  5 16  1  0
  6  7  1  0
  6  8  1  0
  7 10  1  0
  8 15  1  0
  9 14  1  0
 12 16  2  0
 13 16  2  0
 15 16  1  0
  2 17  1  0
  2 18  1  0
  2 19  1  0
  3 20  1  0
  3 21  1  0
  3 22  1  0
  4 23  1  0
  4 24  1  0
  4 25  1  0
  5 26  1  0
  5 27  1  0
  5 28  1  0
  6 29  1  0
  6 30  1  0
  7 31  1  0
  7 32  1  0
  8 33  1  0
  8 34  1  0
 10 35  1  0
M  END
> <Name>
BR020396

$$$$
BR020397
  SciTegic05062102053D

 39 39  0  0  0  0            999 V2000
   -1.0789    3.1427   -4.0424 C   0  0
   -1.0811   -1.6147   -2.2006 C   0  0
    0.3120   -0.0984   -0.8072 C   0  0
    0.1473   -2.4951   -2.3562 C   0  0
    1.4683   -1.0574   -1.0343 C   0  0
    0.6212    5.3891   -3.5808 C   0  0
    1.4731    4.9881   -5.9095 C   0  0
   -0.9419    5.5736   -5.5447 C   0  0
   -2.2899    1.1115   -3.2621 C   0  0
   -1.7745    0.7642   -1.8782 C   0  0
    0.2769    4.8534   -4.9698 C   0  0
   -1.2349    1.7919   -4.0460 N   0  0
   -0.6214   -0.1911   -1.9914 N   0  3
   -1.7507    3.9612   -3.4233 O   0  0
    0.9870   -2.3913   -1.2054 O   0  0
   -0.0286    3.4588   -4.8575 O   0  0
   -1.7051   -1.6370   -3.0992 H   0  0
   -1.6704   -1.8957   -1.3209 H   0  0
   -0.2684   -0.3688    0.0817 H   0  0
    0.6595    0.9365   -0.7345 H   0  0
   -0.1576   -3.5419   -2.4511 H   0  0
    0.7210   -2.2357   -3.2542 H   0  0
    2.0688   -0.7696   -1.9055 H   0  0
    2.1294   -1.0530   -0.1619 H   0  0
   -0.2348    5.2941   -2.9033 H   0  0
    1.4720    4.8570   -3.1428 H   0  0
    0.8652    6.4568   -3.6229 H   0  0
    1.2304    4.6050   -6.9073 H   0  0
    2.3214    4.3951   -5.5490 H   0  0
    1.7949    6.0300   -6.0070 H   0  0
   -1.1892    5.1895   -6.5410 H   0  0
   -1.8202    5.4566   -4.9015 H   0  0
   -0.7402    6.6439   -5.6672 H   0  0
   -2.6109    0.2157   -3.8039 H   0  0
   -3.1472    1.7878   -3.1843 H   0  0
   -2.5411    0.2600   -1.2830 H   0  0
   -1.4070    1.6417   -1.3377 H   0  0
   -0.6139    1.2377   -4.5989 H   0  0
   -0.0888    0.0881   -2.8271 H   0  0
  1 12  1  0
  1 14  2  0
  1 16  1  0
  2  4  1  0
  2 13  1  0
  3  5  1  0
  3 13  1  0
  4 15  1  0
  5 15  1  0
  6 11  1  0
  7 11  1  0
  8 11  1  0
  9 10  1  0
  9 12  1  0
 10 13  1  0
 11 16  1  0
  2 17  1  0
  2 18  1  0
  3 19  1  0
  3 20  1  0
  4 21  1  0
  4 22  1  0
  5 23  1  0
  5 24  1  0
  6 25  1  0
  6 26  1  0
  6 27  1  0
  7 28  1  0
  7 29  1  0
  7 30  1  0
  8 31  1  0
  8 32  1  0
  8 33  1  0
  9 34  1  0
  9 35  1  0
 10 36  1  0
 10 37  1  0
 12 38  1  0
 13 39  1  0
M  CHG  1  13   1
M  END
> <Name>
BR020397

$$$$
BR020398
  SciTegic05062102053D

 42 42  0  0  0  0            999 V2000
   -5.1890    1.3666   -3.8290 C   0  0
   -1.0153   -1.4848   -2.6590 C   0  0
   -0.0336   -0.4938   -0.6009 C   0  0
    0.2138   -2.3742   -2.7395 C   0  0
    1.1446   -1.4348   -0.7874 C   0  0
   -6.6523   -0.8666   -4.8396 C   0  0
   -8.4269   -0.2163   -3.1852 C   0  0
   -7.7887    1.3716   -5.0235 C   0  0
   -1.9373    1.4551   -3.2263 C   0  0
   -3.0557    2.4939   -3.2134 C   0  0
   -1.7745    0.7642   -1.8782 C   0  0
   -7.2881    0.2891   -4.0683 C   0  0
   -4.3231    1.8842   -2.8879 N   0  0
   -0.6288   -0.2033   -1.9587 N   0  3
   -5.0041    1.3543   -5.0416 O   0  0
    0.7272   -2.6386   -1.4331 O   0  0
   -6.2972    0.8627   -3.2082 O   0  0
   -1.3857   -1.2240   -3.6551 H   0  0
   -1.8112   -1.9487   -2.0663 H   0  0
   -0.8234   -0.9505    0.0054 H   0  0
    0.2807    0.4580   -0.1622 H   0  0
   -0.0535   -3.3344   -3.1915 H   0  0
    0.9995   -1.9251   -3.3590 H   0  0
    1.9491   -0.9673   -1.3676 H   0  0
    1.5576   -1.7083    0.1886 H   0  0
   -5.8344   -0.5080   -5.4747 H   0  0
   -6.2580   -1.6334   -4.1648 H   0  0
   -7.3808   -1.3369   -5.5100 H   0  0
   -8.8860    0.6096   -2.6299 H   0  0
   -8.0548   -0.9234   -2.4350 H   0  0
   -9.2049   -0.7129   -3.7739 H   0  0
   -8.2447    2.2007   -4.4705 H   0  0
   -6.9773    1.7722   -5.6398 H   0  0
   -8.5671    0.9767   -5.6863 H   0  0
   -0.9916    1.9290   -3.5186 H   0  0
   -2.1680    0.7051   -3.9931 H   0  0
   -2.8339    3.2611   -2.4644 H   0  0
   -3.1271    2.9931   -4.1855 H   0  0
   -1.5347    1.4680   -1.0760 H   0  0
   -2.6608    0.1834   -1.6063 H   0  0
   -4.5928    1.8333   -1.9099 H   0  0
    0.1009    0.2510   -2.5251 H   0  0
  1 13  1  0
  1 15  2  0
  1 17  1  0
  2  4  1  0
  2 14  1  0
  3  5  1  0
  3 14  1  0
  4 16  1  0
  5 16  1  0
  6 12  1  0
  7 12  1  0
  8 12  1  0
  9 10  1  0
  9 11  1  0
 10 13  1  0
 11 14  1  0
 12 17  1  0
  2 18  1  0
  2 19  1  0
  3 20  1  0
  3 21  1  0
  4 22  1  0
  4 23  1  0
  5 24  1  0
  5 25  1  0
  6 26  1  0
  6 27  1  0
  6 28  1  0
  7 29  1  0
  7 30  1  0
  7 31  1  0
  8 32  1  0
  8 33  1  0
  8 34  1  0
  9 35  1  0
  9 36  1  0
 10 37  1  0
 10 38  1  0
 11 39  1  0
 11 40  1  0
 13 41  1  0
 14 42  1  0
M  CHG  1  14   1
M  END
> <Name>
BR020398

$$$$
BR020399
  SciTegic05062102053D

 24 24  0  0  0  0            999 V2000
    0.3521    0.2583   -1.0073 C   0  0
   -1.2153   -1.2330   -2.0646 C   0  0
   -0.4555    1.4387   -1.5394 C   0  0
   -1.9854   -0.0174   -2.5727 C   0  0
    0.9621   -2.0406   -1.4116 C   0  0
    1.2688   -2.9993   -2.5467 C   0  0
    0.2058   -0.8932   -1.9086 N   0  0
    2.0818   -4.1323   -2.0398 N   0  3
   -1.8315    1.0804   -1.6724 O   0  0
    1.4056    0.5516   -0.9335 H   0  0
   -0.0006   -0.0002   -0.0003 H   0  0
   -1.6368   -1.5566   -1.1039 H   0  0
   -1.3338   -2.0534   -2.7816 H   0  0
   -0.3956    2.2767   -0.8374 H   0  0
   -0.0726    1.7872   -2.5061 H   0  0
   -1.6549    0.2822   -3.5749 H   0  0
   -3.0532   -0.2507   -2.6328 H   0  0
    0.3831   -2.5307   -0.6219 H   0  0
    1.8935   -1.6707   -0.9711 H   0  0
    1.8608   -2.5144   -3.3281 H   0  0
    0.3635   -3.4301   -2.9848 H   0  0
    2.8005   -4.4012   -2.7200 H   0  0
    1.4937   -4.9532   -1.8598 H   0  0
    2.5530   -3.8824   -1.1638 H   0  0
  1  3  1  0
  1  7  1  0
  2  4  1  0
  2  7  1  0
  3  9  1  0
  4  9  1  0
  5  6  1  0
  5  7  1  0
  6  8  1  0
  1 10  1  0
  1 11  1  0
  2 12  1  0
  2 13  1  0
  3 14  1  0
  3 15  1  0
  4 16  1  0
  4 17  1  0
  5 18  1  0
  5 19  1  0
  6 20  1  0
  6 21  1  0
  8 22  1  0
  8 23  1  0
  8 24  1  0
M  CHG  1   8   1
M  END
> <Name>
BR020399

$$$$
BR020400
  SciTegic05062102053D

 28 28  0  0  0  0            999 V2000
    0.4314   -0.0209   -1.0053 C   0  0
   -0.1558   -0.3888   -3.3931 C   0  0
    1.4484   -1.1402   -1.1498 C   0  0
    0.8921   -1.4888   -3.4144 C   0  0
   -2.7005    0.4545   -0.7068 C   0  0
   -1.7745    0.7642   -1.8782 C   0  0
   -3.4628   -0.8637   -0.7918 C   0  0
   -0.6909   -0.2699   -1.9853 N   0  3
   -4.3267   -0.8918   -1.9950 N   0  3
    1.9411   -1.1996   -2.4891 O   0  0
    0.0001   -0.0002    0.0001 H   0  0
    0.8656    0.9538   -1.2534 H   0  0
    0.2740    0.5837   -3.6570 H   0  0
   -0.9965   -0.6249   -4.0523 H   0  0
    2.3016   -0.9520   -0.4905 H   0  0
    1.0240   -2.1123   -0.8711 H   0  0
    0.4570   -2.4679   -3.1812 H   0  0
    1.3386   -1.5551   -4.4115 H   0  0
   -3.4202    1.2774   -0.6119 H   0  0
   -2.1144    0.4524    0.2209 H   0  0
   -1.2733    1.7255   -1.7289 H   0  0
   -2.2975    0.7844   -2.8382 H   0  0
   -2.8019   -1.7329   -0.8487 H   0  0
   -4.1265   -0.9805    0.0703 H   0  0
   -1.1205   -1.1730   -1.7409 H   0  0
   -3.7655   -0.9719   -2.8505 H   0  0
   -4.8875   -0.0349   -2.0660 H   0  0
   -4.9727   -1.6890   -1.9669 H   0  0
  1  3  1  0
  1  8  1  0
  2  4  1  0
  2  8  1  0
  3 10  1  0
  4 10  1  0
  5  6  1  0
  5  7  1  0
  6  8  1  0
  7  9  1  0
  1 11  1  0
  1 12  1  0
  2 13  1  0
  2 14  1  0
  3 15  1  0
  3 16  1  0
  4 17  1  0
  4 18  1  0
  5 19  1  0
  5 20  1  0
  6 21  1  0
  6 22  1  0
  7 23  1  0
  7 24  1  0
  8 25  1  0
  9 26  1  0
  9 27  1  0
  9 28  1  0
M  CHG  2   8   1   9   1
M  END
> <Name>
BR020400

$$$$
BR020401
  SciTegic05062102053D

 19 19  0  0  0  0            999 V2000
    1.2165   -3.0009   -2.4840 C   0  0
    0.3521    0.2583   -1.0073 C   0  0
   -1.2153   -1.2330   -2.0646 C   0  0
   -0.4555    1.4387   -1.5394 C   0  0
   -1.9854   -0.0174   -2.5727 C   0  0
    0.9621   -2.0406   -1.4116 C   0  0
    1.4205   -3.7650   -3.3331 N   0  0
    0.2058   -0.8932   -1.9086 N   0  0
   -1.8315    1.0804   -1.6724 O   0  0
    1.4056    0.5516   -0.9335 H   0  0
   -0.0006   -0.0002   -0.0003 H   0  0
   -1.6368   -1.5566   -1.1039 H   0  0
   -1.3338   -2.0534   -2.7816 H   0  0
   -0.3956    2.2767   -0.8374 H   0  0
   -0.0726    1.7872   -2.5061 H   0  0
   -1.6549    0.2822   -3.5749 H   0  0
   -3.0532   -0.2507   -2.6328 H   0  0
    0.3807   -2.4957   -0.6047 H   0  0
    1.8983   -1.6625   -0.9911 H   0  0
  1  6  1  0
  1  7  3  0
  2  4  1  0
  2  8  1  0
  3  5  1  0
  3  8  1  0
  4  9  1  0
  5  9  1  0
  6  8  1  0
  2 10  1  0
  2 11  1  0
  3 12  1  0
  3 13  1  0
  4 14  1  0
  4 15  1  0
  5 16  1  0
  5 17  1  0
  6 18  1  0
  6 19  1  0
M  END
> <Name>
BR020401

$$$$
BR020402
  SciTegic05062102053D

 20 20  0  0  0  0            999 V2000
    0.9178   -2.2785   -1.8173 C   0  0
   -0.5478   -0.6083   -0.7294 C   0  0
   -0.0884   -2.7017    0.4788 C   0  0
   -2.0049   -0.7440   -0.3111 C   0  0
   -1.5649   -2.7472    0.8515 C   0  0
    1.5428   -3.6492   -1.7557 C   0  0
    0.1018   -1.9189   -0.7469 N   0  0
    1.1451   -1.5527   -2.7884 O   0  0
   -2.0972   -1.4232    0.9439 O   0  0
    2.4778   -3.8436   -3.2341 Cl  0  0
   -0.4739   -0.1173   -1.7043 H   0  0
    0.0000    0.0001    0.0000 H   0  0
    0.4825   -2.1895    1.2623 H   0  0
    0.3025   -3.7162    0.3860 H   0  0
   -2.4560    0.2460   -0.1921 H   0  0
   -2.5876   -1.2909   -1.0619 H   0  0
   -2.1444   -3.3187    0.1165 H   0  0
   -1.6918   -3.2292    1.8259 H   0  0
    0.7553   -4.3931   -1.7129 H   0  0
    2.1965   -3.6990   -0.8924 H   0  0
  1  6  1  0
  1  7  1  0
  1  8  2  0
  2  4  1  0
  2  7  1  0
  3  5  1  0
  3  7  1  0
  4  9  1  0
  5  9  1  0
  6 10  1  0
  2 11  1  0
  2 12  1  0
  3 13  1  0
  3 14  1  0
  4 15  1  0
  4 16  1  0
  5 17  1  0
  5 18  1  0
  6 19  1  0
  6 20  1  0
M  END
> <Name>
BR020402

$$$$
BR020403
  SciTegic05062102053D

 22 22  0  0  0  0            999 V2000
    0.9178   -2.2785   -1.8173 C   0  0
   -0.5478   -0.6083   -0.7294 C   0  0
   -0.0884   -2.7017    0.4788 C   0  0
   -2.0049   -0.7440   -0.3111 C   0  0
   -1.5649   -2.7472    0.8515 C   0  0
    1.5428   -3.6492   -1.7557 C   0  0
    3.4044   -5.8776   -3.3289 N   0  5
    2.3138   -3.7795   -2.9779 N   0  0
    2.8835   -4.8770   -3.1601 N   0  3
    0.1018   -1.9189   -0.7469 N   0  0
    1.1451   -1.5527   -2.7884 O   0  0
   -2.0972   -1.4232    0.9439 O   0  0
   -0.4739   -0.1173   -1.7043 H   0  0
    0.0000    0.0001    0.0000 H   0  0
    0.4825   -2.1895    1.2623 H   0  0
    0.3025   -3.7162    0.3860 H   0  0
   -2.4560    0.2460   -0.1921 H   0  0
   -2.5876   -1.2909   -1.0619 H   0  0
   -2.1444   -3.3187    0.1165 H   0  0
   -1.6918   -3.2292    1.8259 H   0  0
    0.7482   -4.3871   -1.7131 H   0  0
    2.1758   -3.7013   -0.8754 H   0  0
  1  6  1  0
  1 10  1  0
  1 11  2  0
  2  4  1  0
  2 10  1  0
  3  5  1  0
  3 10  1  0
  4 12  1  0
  5 12  1  0
  6  8  1  0
  7  9  2  0
  8  9  2  0
  2 13  1  0
  2 14  1  0
  3 15  1  0
  3 16  1  0
  4 17  1  0
  4 18  1  0
  5 19  1  0
  5 20  1  0
  6 21  1  0
  6 22  1  0
M  CHG  2   7  -1   9   1
M  END
> <Name>
BR020403

$$$$
BR020404
  SciTegic05062102053D

 23 23  0  0  0  0            999 V2000
    0.9178   -2.2785   -1.8173 C   0  0
   -0.5478   -0.6083   -0.7294 C   0  0
   -0.0884   -2.7017    0.4788 C   0  0
   -2.0049   -0.7440   -0.3111 C   0  0
   -1.5649   -2.7472    0.8515 C   0  0
    1.5428   -3.6492   -1.7557 C   0  0
    0.1018   -1.9189   -0.7469 N   0  0
    2.3747   -3.9460   -2.9376 N   0  3
    1.1451   -1.5527   -2.7884 O   0  0
   -2.0972   -1.4232    0.9439 O   0  0
   -0.4739   -0.1173   -1.7043 H   0  0
    0.0000    0.0001    0.0000 H   0  0
    0.4825   -2.1895    1.2623 H   0  0
    0.3025   -3.7162    0.3860 H   0  0
   -2.4560    0.2460   -0.1921 H   0  0
   -2.5876   -1.2909   -1.0619 H   0  0
   -2.1444   -3.3187    0.1165 H   0  0
   -1.6918   -3.2292    1.8259 H   0  0
    0.7606   -4.4011   -1.7126 H   0  0
    2.1804   -3.7161   -0.8796 H   0  0
    3.2890   -4.3305   -2.6657 H   0  0
    2.5487   -3.0992   -3.4951 H   0  0
    1.9203   -4.6337   -3.5528 H   0  0
  1  6  1  0
  1  7  1  0
  1  9  2  0
  2  4  1  0
  2  7  1  0
  3  5  1  0
  3  7  1  0
  4 10  1  0
  5 10  1  0
  6  8  1  0
  2 11  1  0
  2 12  1  0
  3 13  1  0
  3 14  1  0
  4 15  1  0
  4 16  1  0
  5 17  1  0
  5 18  1  0
  6 19  1  0
  6 20  1  0
  8 21  1  0
  8 22  1  0
  8 23  1  0
M  CHG  1   8   1
M  END
> <Name>
BR020404

$$$$
BR020405
  SciTegic05062102053D

 19 19  0  0  0  0            999 V2000
    1.8851   -1.0363   -0.1124 C   0  0
    0.8066   -0.4630    0.5610 C   0  0
    2.9210   -1.6309    0.6081 C   0  0
    0.7638   -0.4841    1.9551 C   0  0
    2.8783   -1.6520    2.0022 C   0  0
    1.7997   -1.0786    2.6757 C   0  0
    2.7151   -1.6554    4.9100 C   0  0
    2.3439   -1.4975    6.3663 C   0  0
    1.7567   -1.0998    4.0701 N   0  0
    3.7497   -2.2377    4.5962 O   0  0
    2.2193   -3.1175    7.0705 Cl  0  0
    1.9184   -1.0208   -1.1980 H   0  0
   -0.0005   -0.0008    0.0003 H   0  0
    3.7603   -2.0781    0.0834 H   0  0
   -0.0819   -0.0343    2.4691 H   0  0
    3.6913   -2.1182    2.5533 H   0  0
    1.3930   -0.9775    6.5069 H   0  0
    3.1307   -0.9419    6.8844 H   0  0
    0.9482   -0.6681    4.5138 H   0  0
  1  2  2  0
  1  3  1  0
  2  4  1  0
  3  5  2  0
  4  6  2  0
  5  6  1  0
  6  9  1  0
  7  8  1  0
  7  9  1  0
  7 10  2  0
  8 11  1  0
  1 12  1  0
  2 13  1  0
  3 14  1  0
  4 15  1  0
  5 16  1  0
  8 17  1  0
  8 18  1  0
  9 19  1  0
M  END
> <Name>
BR020405

$$$$
BR020406
  SciTegic05062102053D

 19 19  0  0  0  0            999 V2000
    1.8851   -1.0363   -0.1124 C   0  0
    2.8783   -1.6520    2.0022 C   0  0
    0.8066   -0.4630    0.5610 C   0  0
    1.7997   -1.0786    2.6757 C   0  0
    2.9210   -1.6309    0.6081 C   0  0
    0.7638   -0.4841    1.9551 C   0  0
    5.0948   -2.8267    0.5230 C   0  0
    6.0744   -3.3332   -0.5101 C   0  0
    3.9999   -2.2038   -0.0654 N   0  0
    5.3289   -2.9728    1.7196 O   0  0
   -0.5672    0.2234    2.7860 Cl  0  0
    7.6271   -2.5328   -0.2202 Cl  0  0
    1.9082   -1.0145   -1.1989 H   0  0
    3.6801   -2.1126    2.5736 H   0  0
    0.0065   -0.0030   -0.0131 H   0  0
    1.7793   -1.1024    3.7621 H   0  0
    5.7554   -3.1241   -1.5343 H   0  0
    6.2014   -4.4131   -0.3929 H   0  0
    3.9840   -2.1620   -1.0828 H   0  0
  1  3  1  0
  1  5  2  0
  2  4  2  0
  2  5  1  0
  3  6  2  0
  4  6  1  0
  5  9  1  0
  6 11  1  0
  7  8  1  0
  7  9  1  0
  7 10  2  0
  8 12  1  0
  1 13  1  0
  2 14  1  0
  3 15  1  0
  4 16  1  0
  8 17  1  0
  8 18  1  0
  9 19  1  0
M  END
> <Name>
BR020406

$$$$
BR020407
  SciTegic05062102053D

 22 22  0  0  0  0            999 V2000
    1.8851   -1.0363   -0.1124 C   0  0
    2.8783   -1.6520    2.0022 C   0  0
    0.8066   -0.4630    0.5610 C   0  0
    1.7997   -1.0786    2.6757 C   0  0
    2.9210   -1.6309    0.6081 C   0  0
    0.7638   -0.4841    1.9551 C   0  0
   -1.4095    0.7125    2.0407 C   0  0
    4.0742   -2.2439   -0.1120 C   0  0
   -2.3885    1.2197    3.0741 C   0  0
   -0.3147    0.0895    2.6290 N   0  0
   -1.6255    0.8919    0.8452 O   0  0
   -2.5330    2.9723    2.8668 Cl  0  0
    1.9091   -1.0173   -1.1989 H   0  0
    3.6807   -2.1137    2.5716 H   0  0
    0.0050   -0.0021   -0.0107 H   0  0
    1.7760   -1.1016    3.7623 H   0  0
    4.8660   -1.5009   -0.2676 H   0  0
    4.4939   -3.0867    0.4523 H   0  0
    3.7691   -2.6374   -1.0905 H   0  0
   -2.0692    1.0106    4.0982 H   0  0
   -3.3658    0.7580    2.9072 H   0  0
   -0.2985    0.0479    3.6463 H   0  0
  1  3  1  0
  1  5  2  0
  2  4  2  0
  2  5  1  0
  3  6  2  0
  4  6  1  0
  5  8  1  0
  6 10  1  0
  7  9  1  0
  7 10  1  0
  7 11  2  0
  9 12  1  0
  1 13  1  0
  2 14  1  0
  3 15  1  0
  4 16  1  0
  8 17  1  0
  8 18  1  0
  8 19  1  0
  9 20  1  0
  9 21  1  0
 10 22  1  0
M  END
> <Name>
BR020407

$$$$
BR020408
  SciTegic05062102053D

 37 38  0  0  0  0            999 V2000
    4.2268   -5.3276    5.7542 C   0  0
    3.9746   -4.3216    6.6868 C   0  0
    3.5079   -5.3673    4.5595 C   0  0
    3.0035   -3.3552    6.4248 C   0  0
    2.5368   -4.4009    4.2975 C   0  0
    2.2845   -3.3949    5.2301 C   0  0
    0.4954   -2.3044    3.8340 C   0  0
    0.0739    0.8414    0.7021 C   0  0
   -2.2890    0.8001    1.2142 C   0  0
    0.4205    0.3226    2.0938 C   0  0
   -2.0110    0.2802    2.6207 C   0  0
   -1.4706    2.1442   -0.6103 C   0  0
   -0.4244   -1.1105    3.9543 C   0  0
   -1.1728    1.6178    0.7213 N   0  0
    1.2994   -2.4142    4.9645 N   0  0
   -0.7261   -0.5090    2.6111 N   0  3
    0.4828   -3.0384    2.8514 O   0  0
    4.9835   -6.0798    5.9575 H   0  0
    4.5348   -4.2899    7.6167 H   0  0
    3.7052   -6.1503    3.8330 H   0  0
    2.8157   -2.5758    7.1591 H   0  0
    1.9827   -4.4418    3.3629 H   0  0
    0.9003    1.4765    0.3608 H   0  0
    0.0000    0.0000    0.0000 H   0  0
   -2.4839   -0.0432    0.5383 H   0  0
   -3.2029    1.4053    1.2503 H   0  0
    1.3038   -0.3235    2.0572 H   0  0
    0.5920    1.1382    2.8060 H   0  0
   -1.8991    1.0951    3.3453 H   0  0
   -2.8081   -0.3956    2.9478 H   0  0
   -2.3992    2.7204   -0.5875 H   0  0
   -1.5828    1.3240   -1.3246 H   0  0
   -0.6605    2.7956   -0.9491 H   0  0
    0.0413   -0.3255    4.5569 H   0  0
   -1.3805   -1.4108    4.3922 H   0  0
    1.1744   -1.7145    5.6931 H   0  0
   -0.8536   -1.2956    1.9594 H   0  0
  1  2  2  0
  1  3  1  0
  2  4  1  0
  3  5  2  0
  4  6  2  0
  5  6  1  0
  6 15  1  0
  7 13  1  0
  7 15  1  0
  7 17  2  0
  8 10  1  0
  8 14  1  0
  9 11  1  0
  9 14  1  0
 10 16  1  0
 11 16  1  0
 12 14  1  0
 13 16  1  0
  1 18  1  0
  2 19  1  0
  3 20  1  0
  4 21  1  0
  5 22  1  0
  8 23  1  0
  8 24  1  0
  9 25  1  0
  9 26  1  0
 10 27  1  0
 10 28  1  0
 11 29  1  0
 11 30  1  0
 12 31  1  0
 12 32  1  0
 12 33  1  0
 13 34  1  0
 13 35  1  0
 15 36  1  0
 16 37  1  0
M  CHG  1  16   1
M  END
> <Name>
BR020408

$$$$
BR020409
  SciTegic05062102053D

 37 38  0  0  0  0            999 V2000
    3.0036   -3.3554    6.4248 C   0  0
    2.5369   -4.4006    4.2972 C   0  0
    3.9749   -4.3216    6.6865 C   0  0
    3.5082   -5.3669    4.5588 C   0  0
    2.2845   -3.3949    5.2301 C   0  0
    4.2272   -5.3274    5.7535 C   0  0
    0.4954   -2.3044    3.8340 C   0  0
    0.0739    0.8414    0.7021 C   0  0
   -2.2890    0.8001    1.2142 C   0  0
    0.4205    0.3226    2.0938 C   0  0
   -2.0110    0.2802    2.6207 C   0  0
   -1.4706    2.1442   -0.6103 C   0  0
   -0.4244   -1.1105    3.9543 C   0  0
   -1.1728    1.6178    0.7213 N   0  0
    1.2994   -2.4142    4.9645 N   0  0
   -0.7261   -0.5090    2.6111 N   0  3
    0.4828   -3.0384    2.8514 O   0  0
    5.4259   -6.5196    6.0765 Cl  0  0
    2.8148   -2.5763    7.1588 H   0  0
    1.9825   -4.4408    3.3631 H   0  0
    4.5277   -4.2786    7.6213 H   0  0
    3.6944   -6.1449    3.8230 H   0  0
    0.9003    1.4765    0.3608 H   0  0
    0.0000    0.0000    0.0000 H   0  0
   -2.4839   -0.0432    0.5383 H   0  0
   -3.2029    1.4053    1.2503 H   0  0
    1.3038   -0.3235    2.0572 H   0  0
    0.5920    1.1382    2.8060 H   0  0
   -1.8991    1.0951    3.3453 H   0  0
   -2.8081   -0.3956    2.9478 H   0  0
   -2.3992    2.7204   -0.5875 H   0  0
   -1.5828    1.3240   -1.3246 H   0  0
   -0.6605    2.7956   -0.9491 H   0  0
    0.0413   -0.3255    4.5569 H   0  0
   -1.3805   -1.4108    4.3922 H   0  0
    1.1744   -1.7145    5.6931 H   0  0
   -0.8536   -1.2956    1.9594 H   0  0
  1  3  1  0
  1  5  2  0
  2  4  2  0
  2  5  1  0
  3  6  2  0
  4  6  1  0
  5 15  1  0
  6 18  1  0
  7 13  1  0
  7 15  1  0
  7 17  2  0
  8 10  1  0
  8 14  1  0
  9 11  1  0
  9 14  1  0
 10 16  1  0
 11 16  1  0
 12 14  1  0
 13 16  1  0
  1 19  1  0
  2 20  1  0
  3 21  1  0
  4 22  1  0
  8 23  1  0
  8 24  1  0
  9 25  1  0
  9 26  1  0
 10 27  1  0
 10 28  1  0
 11 29  1  0
 11 30  1  0
 12 31  1  0
 12 32  1  0
 12 33  1  0
 13 34  1  0
 13 35  1  0
 15 36  1  0
 16 37  1  0
M  CHG  1  16   1
M  END
> <Name>
BR020409

$$$$
BR020410
  SciTegic05062102053D

 40 41  0  0  0  0            999 V2000
    0.3672   -6.6010    6.4760 C   0  0
   -1.6308   -6.6898    5.1206 C   0  0
    0.5483   -5.2642    6.1213 C   0  0
   -1.4497   -5.3530    4.7659 C   0  0
   -0.7224   -7.3138    5.9756 C   0  0
   -0.3601   -4.6402    5.2663 C   0  0
   -0.9795   -2.5119    4.0723 C   0  0
   -0.2262   -0.4493    0.1915 C   0  0
   -1.0776    1.5388    1.2730 C   0  0
    0.1813   -1.0476    1.5338 C   0  0
   -0.6949    0.9983    2.6467 C   0  0
   -0.9160   -8.7431    6.3549 C   0  0
   -0.5350    1.5775   -1.0742 C   0  0
   -0.4244   -1.1105    3.9543 C   0  0
   -0.1832    1.0184    0.2307 N   0  0
   -0.1767   -3.2839    4.9065 N   0  0
   -0.7261   -0.5090    2.6111 N   0  3
   -2.0030   -2.8568    3.4910 O   0  0
    1.0811   -7.0798    7.1410 H   0  0
   -2.4822   -7.2379    4.7255 H   0  0
    1.4008   -4.7182    6.5176 H   0  0
   -2.1631   -4.8768    4.0981 H   0  0
    0.4697   -0.8198   -0.5709 H   0  0
   -1.2284   -0.8041   -0.0842 H   0  0
   -2.1234    1.2860    1.0526 H   0  0
   -1.0084    2.6328    1.3072 H   0  0
    0.0668   -2.1365    1.5231 H   0  0
    1.2122   -0.7900    1.8033 H   0  0
    0.3146    1.3062    2.9427 H   0  0
   -1.4153    1.3230    3.4047 H   0  0
   -1.5281   -8.8181    7.2620 H   0  0
   -1.4125   -9.3045    5.5528 H   0  0
    0.0453   -9.2395    6.5417 H   0  0
   -0.5007    2.6694   -1.0367 H   0  0
   -1.5439    1.2668   -1.3590 H   0  0
    0.1672    1.2293   -1.8364 H   0  0
    0.6639   -1.1178    4.0623 H   0  0
   -0.8778   -0.4582    4.7059 H   0  0
    0.6407   -2.8328    5.3122 H   0  0
   -1.6870   -0.7908    2.3726 H   0  0
  1  3  1  0
  1  5  2  0
  2  4  2  0
  2  5  1  0
  3  6  2  0
  4  6  1  0
  5 12  1  0
  6 16  1  0
  7 14  1  0
  7 16  1  0
  7 18  2  0
  8 10  1  0
  8 15  1  0
  9 11  1  0
  9 15  1  0
 10 17  1  0
 11 17  1  0
 13 15  1  0
 14 17  1  0
  1 19  1  0
  2 20  1  0
  3 21  1  0
  4 22  1  0
  8 23  1  0
  8 24  1  0
  9 25  1  0
  9 26  1  0
 10 27  1  0
 10 28  1  0
 11 29  1  0
 11 30  1  0
 12 31  1  0
 12 32  1  0
 12 33  1  0
 13 34  1  0
 13 35  1  0
 13 36  1  0
 14 37  1  0
 14 38  1  0
 16 39  1  0
 17 40  1  0
M  CHG  1  17   1
M  END
> <Name>
BR020410

$$$$
BR020411
  SciTegic05062102053D

 39 41  0  0  1  0            999 V2000
    1.3843   -5.3678  -12.2973 C   0  0
    1.9350   -0.4741   -0.8142 C   0  0
    0.5425   -0.4732   -0.8132 C   0  0
    0.7272   -6.3468  -11.5521 C   0  0
    1.6524   -4.1221  -11.7298 C   0  0
    2.6314   -1.0856   -1.8565 C   0  0
   -0.1557   -1.0795   -1.8569 C   0  0
    0.3380   -6.0801  -10.2395 C   0  0
    1.2632   -3.8554  -10.4172 C   0  0
    1.9400   -1.7084   -2.9050 C   0  0
    0.5344   -1.6888   -2.9138 C   0  0
    0.6060   -4.8343   -9.6720 C   0  0
    0.3965   -3.3858   -7.6233 C   0  0
    2.7125   -2.3316   -4.0398 C   0  0
   -0.2404   -2.3609   -4.0143 C   0  0
    1.8959   -3.3373   -4.8440 C   0  0
   -0.1767   -3.5193   -6.2307 C   0  0
    0.2111   -4.5640   -8.3401 N   0  0
    0.5901   -2.6940   -5.2370 N   0  3
    0.9345   -2.3531   -8.0086 O   0  0
    1.6882   -5.5754  -13.3192 H   0  0
    2.4792    0.0020   -0.0038 H   0  0
   -0.0001    0.0002   -0.0002 H   0  0
    0.5191   -7.3171  -11.9933 H   0  0
    2.1650   -3.3603  -12.3100 H   0  0
    3.7184   -1.0735   -1.8472 H   0  0
   -1.2428   -1.0736   -1.8432 H   0  0
   -0.1735   -6.8509   -9.6683 H   0  0
    1.4775   -2.8809   -9.9853 H   0  0
    3.0567   -1.5256   -4.6999 H   0  0
    3.6021   -2.8398   -3.6486 H   0  0
   -0.6595   -3.3035   -3.6427 H   0  0
   -1.0490   -1.7103   -4.3660 H   0  0
    2.4242   -3.6173   -5.7614 H   0  0
    1.6604   -4.2387   -4.2664 H   0  0
   -0.1229   -4.5575   -5.8907 H   0  0
   -1.2111   -3.1647   -6.2105 H   0  0
   -0.2626   -5.3283   -7.8631 H   0  0
    0.8152   -1.8055   -5.7057 H   0  0
  1  4  2  0
  1  5  1  0
  2  3  1  0
  2  6  2  0
  3  7  2  0
  4  8  1  0
  5  9  2  0
  6 10  1  0
  7 11  1  0
  8 12  2  0
  9 12  1  0
 10 11  2  0
 10 14  1  0
 11 15  1  0
 12 18  1  0
 13 17  1  0
 13 18  1  0
 13 20  2  0
 14 16  1  0
 15 19  1  0
 16 19  1  0
 17 19  1  0
  1 21  1  0
  2 22  1  0
  3 23  1  0
  4 24  1  0
  5 25  1  0
  6 26  1  0
  7 27  1  0
  8 28  1  0
  9 29  1  0
 14 30  1  0
 14 31  1  0
 15 32  1  0
 15 33  1  0
 16 34  1  0
 16 35  1  0
 17 36  1  0
 17 37  1  0
 18 38  1  0
 19 39  1  0
M  CHG  1  19   1
M  END
> <Name>
BR020411

$$$$
BR020412
  SciTegic05062102053D

 39 41  0  0  1  0            999 V2000
    1.9350   -0.4741   -0.8142 C   0  0
    0.5425   -0.4732   -0.8132 C   0  0
    2.6314   -1.0856   -1.8565 C   0  0
   -0.1557   -1.0795   -1.8569 C   0  0
    0.3380   -6.0800  -10.2396 C   0  0
    1.2635   -3.8554  -10.4169 C   0  0
    0.7276   -6.3467  -11.5521 C   0  0
    1.6531   -4.1220  -11.7294 C   0  0
    1.9400   -1.7084   -2.9050 C   0  0
    0.5344   -1.6888   -2.9138 C   0  0
    0.6060   -4.8343   -9.6720 C   0  0
    1.3851   -5.3677  -12.2970 C   0  0
    0.3965   -3.3858   -7.6233 C   0  0
    2.7125   -2.3316   -4.0398 C   0  0
   -0.2404   -2.3609   -4.0143 C   0  0
    1.8959   -3.3373   -4.8440 C   0  0
   -0.1767   -3.5193   -6.2307 C   0  0
    0.2111   -4.5640   -8.3401 N   0  0
    0.5901   -2.6940   -5.2370 N   0  3
    0.9345   -2.3531   -8.0086 O   0  0
    1.8658   -5.6969  -13.9167 Cl  0  0
    2.4792    0.0020   -0.0038 H   0  0
   -0.0001    0.0002   -0.0002 H   0  0
    3.7184   -1.0735   -1.8472 H   0  0
   -1.2428   -1.0736   -1.8432 H   0  0
   -0.1740   -6.8500   -9.6683 H   0  0
    1.4774   -2.8814   -9.9844 H   0  0
    0.5125   -7.3217  -11.9817 H   0  0
    2.1646   -3.3500  -12.2983 H   0  0
    3.0567   -1.5256   -4.6999 H   0  0
    3.6021   -2.8398   -3.6486 H   0  0
   -0.6595   -3.3035   -3.6427 H   0  0
   -1.0490   -1.7103   -4.3660 H   0  0
    2.4242   -3.6173   -5.7614 H   0  0
    1.6604   -4.2387   -4.2664 H   0  0
   -0.1229   -4.5575   -5.8907 H   0  0
   -1.2111   -3.1647   -6.2105 H   0  0
   -0.2626   -5.3283   -7.8631 H   0  0
    0.8152   -1.8055   -5.7057 H   0  0
  1  2  1  0
  1  3  2  0
  2  4  2  0
  3  9  1  0
  4 10  1  0
  5  7  1  0
  5 11  2  0
  6  8  2  0
  6 11  1  0
  7 12  2  0
  8 12  1  0
  9 10  2  0
  9 14  1  0
 10 15  1  0
 11 18  1  0
 12 21  1  0
 13 17  1  0
 13 18  1  0
 13 20  2  0
 14 16  1  0
 15 19  1  0
 16 19  1  0
 17 19  1  0
  1 22  1  0
  2 23  1  0
  3 24  1  0
  4 25  1  0
  5 26  1  0
  6 27  1  0
  7 28  1  0
  8 29  1  0
 14 30  1  0
 14 31  1  0
 15 32  1  0
 15 33  1  0
 16 34  1  0
 16 35  1  0
 17 36  1  0
 17 37  1  0
 18 38  1  0
 19 39  1  0
M  CHG  1  19   1
M  END
> <Name>
BR020412

$$$$
BR020413
  SciTegic05062102053D

 42 44  0  0  1  0            999 V2000
    2.9801   -1.3303   -0.9096 C   0  0
    1.9077   -2.1185   -0.5002 C   0  0
    3.2320   -1.1469   -2.2691 C   0  0
    1.0826   -2.7206   -1.4496 C   0  0
   -1.0489   -3.8534  -12.2522 C   0  0
   -1.2981   -1.5419  -11.5951 C   0  0
   -0.7926   -4.2027  -10.9263 C   0  0
   -1.0418   -1.8912  -10.2692 C   0  0
    2.4163   -1.7568   -3.2324 C   0  0
    1.3215   -2.5353   -2.8182 C   0  0
   -1.3016   -2.5230  -12.5866 C   0  0
   -0.7891   -3.2216   -9.9348 C   0  0
   -0.4880   -2.7323   -7.4835 C   0  0
    2.6849   -1.5157   -4.6961 C   0  0
    0.4347   -3.2177   -3.8237 C   0  0
    2.0457   -2.5591   -5.6060 C   0  0
   -1.5756   -2.1496  -14.0042 C   0  0
   -0.1767   -3.5193   -6.2307 C   0  0
   -0.5294   -3.5757   -8.5895 N   0  0
    0.5901   -2.6940   -5.2370 N   0  3
   -0.6723   -1.5199   -7.4606 O   0  0
    3.6202   -0.8574   -0.1705 H   0  0
    1.7130   -2.2640    0.5584 H   0  0
    4.0693   -0.5241   -2.5742 H   0  0
    0.2499   -3.3352   -1.1167 H   0  0
   -1.0475   -4.6240  -13.0186 H   0  0
   -1.4932   -0.5027  -11.8468 H   0  0
   -0.5973   -5.2427  -10.6771 H   0  0
   -1.0404   -1.1184   -9.5046 H   0  0
    2.3020   -0.5200   -4.9527 H   0  0
    3.7661   -1.5103   -4.8794 H   0  0
    0.6684   -4.2886   -3.8493 H   0  0
   -0.6200   -3.0758   -3.5629 H   0  0
    2.1011   -2.2435   -6.6530 H   0  0
    2.5083   -3.5468   -5.4954 H   0  0
   -2.6509   -2.2061  -14.2131 H   0  0
   -1.2322   -1.1298  -14.2212 H   0  0
   -1.0503   -2.8164  -14.7005 H   0  0
    0.4428   -4.3892   -6.4671 H   0  0
   -1.1024   -3.8326   -5.7396 H   0  0
   -0.3546   -4.5651   -8.4259 H   0  0
    0.1794   -1.7503   -5.2609 H   0  0
  1  2  1  0
  1  3  2  0
  2  4  2  0
  3  9  1  0
  4 10  1  0
  5  7  1  0
  5 11  2  0
  6  8  2  0
  6 11  1  0
  7 12  2  0
  8 12  1  0
  9 10  2  0
  9 14  1  0
 10 15  1  0
 11 17  1  0
 12 19  1  0
 13 18  1  0
 13 19  1  0
 13 21  2  0
 14 16  1  0
 15 20  1  0
 16 20  1  0
 18 20  1  0
  1 22  1  0
  2 23  1  0
  3 24  1  0
  4 25  1  0
  5 26  1  0
  6 27  1  0
  7 28  1  0
  8 29  1  0
 14 30  1  0
 14 31  1  0
 15 32  1  0
 15 33  1  0
 16 34  1  0
 16 35  1  0
 17 36  1  0
 17 37  1  0
 17 38  1  0
 18 39  1  0
 18 40  1  0
 19 41  1  0
 20 42  1  0
M  CHG  1  20   1
M  END
> <Name>
BR020413

$$$$
BR020414
  SciTegic05062102053D

 45 46  0  0  0  0            999 V2000
    2.0602    7.8841   -8.3171 C   0  0
    1.9692    6.8112   -9.2037 C   0  0
    1.5460    7.7674   -7.0258 C   0  0
    1.3637    5.6215   -8.7990 C   0  0
    0.9405    6.5777   -6.6211 C   0  0
    0.8494    5.5048   -7.5077 C   0  0
   -0.3266    4.0111   -5.8569 C   0  0
   -1.2297   -1.6435   -1.4969 C   0  0
    0.5352    0.0841   -1.2106 C   0  0
   -0.1150   -2.6620   -1.6655 C   0  0
    1.5588   -1.0236   -1.3935 C   0  0
   -0.8755    2.6024   -5.8386 C   0  0
   -2.7145    0.6854   -3.0765 C   0  0
   -1.7747    0.7652   -1.8781 C   0  0
   -2.0732    0.9138   -4.4412 C   0  0
    0.2352    4.2976   -7.0973 N   0  0
   -0.7189   -0.2996   -1.9604 N   0  3
   -1.4583    2.2597   -4.5117 N   0  3
   -0.4013    4.7506   -4.8812 O   0  0
    1.0397   -2.2683   -0.9227 O   0  0
    2.5323    8.8103   -8.6316 H   0  0
    2.3702    6.9014  -10.2089 H   0  0
    1.6180    8.6027   -6.3353 H   0  0
    1.2985    4.7919   -9.4987 H   0  0
    0.5433    6.4982   -5.6122 H   0  0
   -2.1009   -1.8999   -2.1073 H   0  0
   -1.5202   -1.5331   -0.4464 H   0  0
    0.2560    0.2065   -0.1584 H   0  0
    0.8946    1.0322   -1.6218 H   0  0
   -0.4408   -3.6338   -1.2819 H   0  0
    0.1549   -2.7969   -2.7199 H   0  0
    1.8626   -1.1260   -2.4421 H   0  0
    2.4570   -0.7973   -0.8103 H   0  0
   -0.0802    1.8773   -6.0335 H   0  0
   -1.6762    2.4977   -6.5763 H   0  0
   -3.5171    1.4196   -2.9320 H   0  0
   -3.1988   -0.2992   -3.0856 H   0  0
   -2.3222    0.5888   -0.9471 H   0  0
   -1.2587    1.7265   -1.8073 H   0  0
   -1.2875    0.1878   -4.6674 H   0  0
   -2.8282    0.8750   -5.2323 H   0  0
    0.2077    3.5623   -7.8007 H   0  0
   -0.4687   -0.3899   -2.9550 H   0  0
   -0.7219    2.3378   -3.7943 H   0  0
   -2.1619    2.9714   -4.2632 H   0  0
  1  2  2  0
  1  3  1  0
  2  4  1  0
  3  5  2  0
  4  6  2  0
  5  6  1  0
  6 16  1  0
  7 12  1  0
  7 16  1  0
  7 19  2  0
  8 10  1  0
  8 17  1  0
  9 11  1  0
  9 17  1  0
 10 20  1  0
 11 20  1  0
 12 18  1  0
 13 14  1  0
 13 15  1  0
 14 17  1  0
 15 18  1  0
  1 21  1  0
  2 22  1  0
  3 23  1  0
  4 24  1  0
  5 25  1  0
  8 26  1  0
  8 27  1  0
  9 28  1  0
  9 29  1  0
 10 30  1  0
 10 31  1  0
 11 32  1  0
 11 33  1  0
 12 34  1  0
 12 35  1  0
 13 36  1  0
 13 37  1  0
 14 38  1  0
 14 39  1  0
 15 40  1  0
 15 41  1  0
 16 42  1  0
 17 43  1  0
 18 44  1  0
 18 45  1  0
M  CHG  2  17   1  18   1
M  END
> <Name>
BR020414

$$$$
BR020415
  SciTegic05062102053D

 45 46  0  0  0  0            999 V2000
    1.3637    5.6217   -8.7990 C   0  0
    0.9408    6.5775   -6.6208 C   0  0
    1.9694    6.8113   -9.2034 C   0  0
    1.5465    7.7671   -7.0252 C   0  0
    0.8494    5.5048   -7.5077 C   0  0
    2.0608    7.8840   -8.3165 C   0  0
   -0.3266    4.0111   -5.8569 C   0  0
   -1.2297   -1.6435   -1.4969 C   0  0
    0.5352    0.0841   -1.2106 C   0  0
   -0.1150   -2.6620   -1.6655 C   0  0
    1.5588   -1.0236   -1.3935 C   0  0
   -0.8755    2.6024   -5.8386 C   0  0
   -2.7145    0.6854   -3.0765 C   0  0
   -1.7747    0.7652   -1.8781 C   0  0
   -2.0732    0.9138   -4.4412 C   0  0
    0.2352    4.2976   -7.0973 N   0  0
   -0.7189   -0.2996   -1.9604 N   0  3
   -1.4583    2.2597   -4.5117 N   0  3
   -0.4013    4.7506   -4.8812 O   0  0
    1.0397   -2.2683   -0.9227 O   0  0
    2.8083    9.3519   -8.8157 Cl  0  0
    1.2976    4.7922   -9.4983 H   0  0
    0.5433    6.4972   -5.6123 H   0  0
    2.3660    6.8884  -10.2124 H   0  0
    1.6107    8.5950   -6.3238 H   0  0
   -2.1009   -1.8999   -2.1073 H   0  0
   -1.5202   -1.5331   -0.4464 H   0  0
    0.2560    0.2065   -0.1584 H   0  0
    0.8946    1.0322   -1.6218 H   0  0
   -0.4408   -3.6338   -1.2819 H   0  0
    0.1549   -2.7969   -2.7199 H   0  0
    1.8626   -1.1260   -2.4421 H   0  0
    2.4570   -0.7973   -0.8103 H   0  0
   -0.0802    1.8773   -6.0335 H   0  0
   -1.6762    2.4977   -6.5763 H   0  0
   -3.5171    1.4196   -2.9320 H   0  0
   -3.1988   -0.2992   -3.0856 H   0  0
   -2.3222    0.5888   -0.9471 H   0  0
   -1.2587    1.7265   -1.8073 H   0  0
   -1.2875    0.1878   -4.6674 H   0  0
   -2.8282    0.8750   -5.2323 H   0  0
    0.2077    3.5623   -7.8007 H   0  0
   -0.4687   -0.3899   -2.9550 H   0  0
   -0.7219    2.3378   -3.7943 H   0  0
   -2.1619    2.9714   -4.2632 H   0  0
  1  3  1  0
  1  5  2  0
  2  4  2  0
  2  5  1  0
  3  6  2  0
  4  6  1  0
  5 16  1  0
  6 21  1  0
  7 12  1  0
  7 16  1  0
  7 19  2  0
  8 10  1  0
  8 17  1  0
  9 11  1  0
  9 17  1  0
 10 20  1  0
 11 20  1  0
 12 18  1  0
 13 14  1  0
 13 15  1  0
 14 17  1  0
 15 18  1  0
  1 22  1  0
  2 23  1  0
  3 24  1  0
  4 25  1  0
  8 26  1  0
  8 27  1  0
  9 28  1  0
  9 29  1  0
 10 30  1  0
 10 31  1  0
 11 32  1  0
 11 33  1  0
 12 34  1  0
 12 35  1  0
 13 36  1  0
 13 37  1  0
 14 38  1  0
 14 39  1  0
 15 40  1  0
 15 41  1  0
 16 42  1  0
 17 43  1  0
 18 44  1  0
 18 45  1  0
M  CHG  2  17   1  18   1
M  END
> <Name>
BR020415

$$$$
BR020416
  SciTegic05062102053D

 48 49  0  0  0  0            999 V2000
    1.9688    6.8120   -9.2032 C   0  0
    1.5449    7.7676   -7.0250 C   0  0
    1.3638    5.6220   -8.7989 C   0  0
    0.9399    6.5776   -6.6207 C   0  0
    2.0594    7.8848   -8.3162 C   0  0
    0.8494    5.5048   -7.5077 C   0  0
   -0.3266    4.0111   -5.8569 C   0  0
   -1.2297   -1.6435   -1.4969 C   0  0
    0.5352    0.0841   -1.2106 C   0  0
   -0.1150   -2.6620   -1.6655 C   0  0
    1.5588   -1.0236   -1.3935 C   0  0
    2.7063    9.1571   -8.7486 C   0  0
   -0.8755    2.6024   -5.8386 C   0  0
   -2.7145    0.6854   -3.0765 C   0  0
   -1.7747    0.7652   -1.8781 C   0  0
   -2.0732    0.9138   -4.4412 C   0  0
    0.2352    4.2976   -7.0973 N   0  0
   -0.7189   -0.2996   -1.9604 N   0  3
   -1.4583    2.2597   -4.5117 N   0  3
   -0.4013    4.7506   -4.8812 O   0  0
    1.0397   -2.2683   -0.9227 O   0  0
    2.3689    6.8938  -10.2104 H   0  0
    1.6119    8.5981   -6.3272 H   0  0
    1.2984    4.7925   -9.4986 H   0  0
    0.5432    6.4966   -5.6118 H   0  0
   -2.1009   -1.8999   -2.1073 H   0  0
   -1.5202   -1.5331   -0.4464 H   0  0
    0.2560    0.2065   -0.1584 H   0  0
    0.8946    1.0322   -1.6218 H   0  0
   -0.4408   -3.6338   -1.2819 H   0  0
    0.1549   -2.7969   -2.7199 H   0  0
    1.8626   -1.1260   -2.4421 H   0  0
    2.4570   -0.7973   -0.8103 H   0  0
    1.9633    9.8328   -9.1896 H   0  0
    3.1834    9.6690   -7.9029 H   0  0
    3.4926    8.9717   -9.4920 H   0  0
   -0.0802    1.8773   -6.0335 H   0  0
   -1.6762    2.4977   -6.5763 H   0  0
   -3.5171    1.4196   -2.9320 H   0  0
   -3.1988   -0.2992   -3.0856 H   0  0
   -2.3222    0.5888   -0.9471 H   0  0
   -1.2587    1.7265   -1.8073 H   0  0
   -1.2875    0.1878   -4.6674 H   0  0
   -2.8282    0.8750   -5.2323 H   0  0
    0.2077    3.5623   -7.8007 H   0  0
   -0.4687   -0.3899   -2.9550 H   0  0
   -0.7219    2.3378   -3.7943 H   0  0
   -2.1619    2.9714   -4.2632 H   0  0
  1  3  1  0
  1  5  2  0
  2  4  2  0
  2  5  1  0
  3  6  2  0
  4  6  1  0
  5 12  1  0
  6 17  1  0
  7 13  1  0
  7 17  1  0
  7 20  2  0
  8 10  1  0
  8 18  1  0
  9 11  1  0
  9 18  1  0
 10 21  1  0
 11 21  1  0
 13 19  1  0
 14 15  1  0
 14 16  1  0
 15 18  1  0
 16 19  1  0
  1 22  1  0
  2 23  1  0
  3 24  1  0
  4 25  1  0
  8 26  1  0
  8 27  1  0
  9 28  1  0
  9 29  1  0
 10 30  1  0
 10 31  1  0
 11 32  1  0
 11 33  1  0
 12 34  1  0
 12 35  1  0
 12 36  1  0
 13 37  1  0
 13 38  1  0
 14 39  1  0
 14 40  1  0
 15 41  1  0
 15 42  1  0
 16 43  1  0
 16 44  1  0
 17 45  1  0
 18 46  1  0
 19 47  1  0
 19 48  1  0
M  CHG  2  18   1  19   1
M  END
> <Name>
BR020416

$$$$
BR020417
  SciTegic05062102053D

 27 27  0  0  0  0            999 V2000
   -0.1175   -0.8394   -0.6230 C   0  0
   -0.1846   -0.6354   -2.0171 C   0  0
   -0.2243   -2.1941   -0.4024 C   0  0
   -0.3308   -1.8715   -2.6070 C   0  0
   -0.4396   -2.0959   -4.0192 C   0  0
   -0.4899   -4.2206   -1.7796 C   0  0
    0.5579   -6.8302   -1.4253 C   0  0
   -0.5533   -6.7676    0.8264 C   0  0
   -1.9433   -6.6050   -1.2592 C   0  0
   -0.6029   -6.2587   -0.6126 C   0  0
   -0.3565   -2.8381   -1.6188 N   0  0
   -0.4135   -1.1874   -4.8704 O   0  0
   -0.6020   -4.7121   -2.8912 O   0  0
   -0.4718   -4.8347   -0.5708 O   0  0
   -0.0049   -0.0856    0.1435 H   0  0
   -0.1327    0.3127   -2.5351 H   0  0
   -0.2176   -2.7507    0.5256 H   0  0
   -0.5555   -3.1503   -4.3827 H   0  0
    0.5259   -6.4672   -2.4589 H   0  0
    1.5260   -6.5593   -0.9915 H   0  0
    0.4966   -7.9232   -1.4795 H   0  0
   -1.3844   -6.3600    1.4132 H   0  0
    0.3662   -6.4401    1.3248 H   0  0
   -0.6011   -7.8605    0.8703 H   0  0
   -2.7762   -6.1952   -0.6764 H   0  0
   -2.0113   -6.2155   -2.2801 H   0  0
   -2.0922   -7.6904   -1.2900 H   0  0
  1  2  1  0
  1  3  2  0
  2  4  2  0
  3 11  1  0
  4  5  1  0
  4 11  1  0
  5 12  2  0
  6 11  1  0
  6 13  2  0
  6 14  1  0
  7 10  1  0
  8 10  1  0
  9 10  1  0
 10 14  1  0
  1 15  1  0
  2 16  1  0
  3 17  1  0
  5 18  1  0
  7 19  1  0
  7 20  1  0
  7 21  1  0
  8 22  1  0
  8 23  1  0
  8 24  1  0
  9 25  1  0
  9 26  1  0
  9 27  1  0
M  END
> <Name>
BR020417

$$$$
BR020418
  SciTegic05062102053D

 12 12  0  0  0  0            999 V2000
    1.5204    0.4727    1.5759 C   0  0
    0.2891    0.0196    1.0414 C   0  0
    1.4575    0.3171    2.9431 C   0  0
   -0.4888   -0.3990    2.0983 C   0  0
   -1.9034   -0.9669    2.0137 C   0  0
    0.2315   -0.2133    3.2493 N   0  0
   -2.4471   -1.2939    3.1051 O   0  5
   -2.4066   -1.0606    0.8597 O   0  0
    2.3620    0.8704    1.0264 H   0  0
    0.0049    0.0006   -0.0018 H   0  0
    2.1733    0.5363    3.7228 H   0  0
   -0.0914   -0.4321    4.1818 H   0  0
  1  2  1  0
  1  3  2  0
  2  4  2  0
  3  6  1  0
  4  5  1  0
  4  6  1  0
  5  7  1  0
  5  8  2  0
  1  9  1  0
  2 10  1  0
  3 11  1  0
  6 12  1  0
M  CHG  1   7  -1
M  END
> <Name>
BR020418

$$$$
BR020419
  SciTegic05062102053D

 25 26  0  0  0  0            999 V2000
    2.9867    2.3453    0.0456 C   0  0
    3.1567    1.0328   -0.4600 C   0  0
    2.2180    2.2509    1.1846 C   0  0
    2.4866    0.1763    0.3855 C   0  0
    2.3618   -1.2844    0.2932 C   0  0
   -0.1734   -1.0696    0.1335 C   0  0
    0.9089   -3.2812    0.1684 C   0  0
   -1.0616   -1.5851   -0.9926 C   0  0
   -0.0166   -3.6979   -0.9654 C   0  0
    1.9196    0.9279    1.3814 N   0  0
    1.0818   -1.8295    0.1784 N   0  0
    3.4116   -1.9246    0.3305 O   0  0
   -1.2590   -2.9958   -0.8697 O   0  0
    3.3803    3.2596   -0.3756 H   0  0
    3.7090    0.7475   -1.3450 H   0  0
    1.8549    3.0045    1.8692 H   0  0
   -0.0010    0.0025    0.0131 H   0  0
   -0.6632   -1.2281    1.1015 H   0  0
    0.4658   -3.5479    1.1351 H   0  0
    1.8719   -3.7933    0.0836 H   0  0
   -2.0430   -1.1030   -0.9468 H   0  0
   -0.6262   -1.3666   -1.9750 H   0  0
    0.4353   -3.5018   -1.9450 H   0  0
   -0.2298   -4.7695   -0.9030 H   0  0
    1.3656    0.5647    2.1450 H   0  0
  1  2  1  0
  1  3  2  0
  2  4  2  0
  3 10  1  0
  4  5  1  0
  4 10  1  0
  5 11  1  0
  5 12  2  0
  6  8  1  0
  6 11  1  0
  7  9  1  0
  7 11  1  0
  8 13  1  0
  9 13  1  0
  1 14  1  0
  2 15  1  0
  3 16  1  0
  6 17  1  0
  6 18  1  0
  7 19  1  0
  7 20  1  0
  8 21  1  0
  8 22  1  0
  9 23  1  0
  9 24  1  0
 10 25  1  0
M  END
> <Name>
BR020419

$$$$
BR020420
  SciTegic05062102053D

 30 31  0  0  0  0            999 V2000
   -2.5659   -1.5616    2.2696 C   0  0
   -3.0397   -0.7094    1.2418 C   0  0
   -1.4288   -0.9848    2.7906 C   0  0
   -2.1775    0.3622    1.1659 C   0  0
   -2.2342    1.5082    0.2662 C   0  0
    0.0640    0.8691   -0.6568 C   0  0
   -1.0986    2.8858   -1.4545 C   0  0
    0.3262    0.4238   -2.0880 C   0  0
   -0.8498    2.4823   -2.9014 C   0  0
    0.7592    1.2873   -4.3916 C   0  0
   -1.2020    0.1840    2.1118 N   0  0
   -1.1396    1.7077   -0.5886 N   0  0
    0.4106    1.6480   -2.9749 N   0  3
   -3.2235    2.2398    0.2873 O   0  0
   -3.0049   -2.4946    2.5936 H   0  0
   -3.9153   -0.8640    0.6262 H   0  0
   -0.7606   -1.3016    3.5790 H   0  0
   -0.0192   -0.0104   -0.0137 H   0  0
    0.9003    1.4695   -0.2785 H   0  0
   -0.2939    3.5348   -1.0887 H   0  0
   -2.0325    3.4522   -1.3856 H   0  0
    1.2810   -0.1059   -2.1647 H   0  0
   -0.4825   -0.2061   -2.4750 H   0  0
   -1.6692    1.8734   -3.2996 H   0  0
   -0.7003    3.3639   -3.5328 H   0  0
   -0.0490    0.6696   -4.7874 H   0  0
    0.8576    2.2153   -4.9581 H   0  0
    1.7015    0.7364   -4.3739 H   0  0
   -0.4321    0.8159    2.2845 H   0  0
    1.1836    2.2287   -2.6220 H   0  0
  1  2  1  0
  1  3  2  0
  2  4  2  0
  3 11  1  0
  4  5  1  0
  4 11  1  0
  5 12  1  0
  5 14  2  0
  6  8  1  0
  6 12  1  0
  7  9  1  0
  7 12  1  0
  8 13  1  0
  9 13  1  0
 10 13  1  0
  1 15  1  0
  2 16  1  0
  3 17  1  0
  6 18  1  0
  6 19  1  0
  7 20  1  0
  7 21  1  0
  8 22  1  0
  8 23  1  0
  9 24  1  0
  9 25  1  0
 10 26  1  0
 10 27  1  0
 10 28  1  0
 11 29  1  0
 13 30  1  0
M  CHG  1  13   1
M  END
> <Name>
BR020420

$$$$
BR020421
  SciTegic05062102053D

 31 33  0  0  0  0            999 V2000
    1.0137    0.3200    1.8714 C   0  0
    0.0193   -0.2241    1.0626 C   0  0
   -6.5353   -2.3102    4.5825 C   0  0
    1.0395    0.0305    3.2352 C   0  0
   -0.9548   -1.0538    1.6175 C   0  0
   -5.4925   -1.8478    5.4227 C   0  0
   -6.0502   -3.3929    3.8828 C   0  0
    0.0735   -0.8132    3.8000 C   0  0
   -0.9432   -1.3484    2.9885 C   0  0
   -4.4019   -2.6619    5.2107 C   0  0
   -3.0744   -2.5937    5.8411 C   0  0
    0.0977   -1.0968    5.2793 C   0  0
   -2.0149   -2.2495    3.5546 C   0  0
   -0.6230   -2.3993    5.6047 C   0  0
   -4.7523   -3.5974    4.2725 N   0  0
   -1.9609   -2.3991    5.0170 N   0  0
   -3.0442   -2.7203    7.0644 O   0  0
    1.7690    0.9707    1.4403 H   0  0
   -0.0001    0.0002    0.0001 H   0  0
   -7.5307   -1.8980    4.4959 H   0  0
    1.8190    0.4653    3.8558 H   0  0
   -1.7277   -1.4685    0.9751 H   0  0
   -5.5364   -1.0114    6.1069 H   0  0
   -6.5096   -4.0326    3.1424 H   0  0
    1.1317   -1.1623    5.6372 H   0  0
   -0.3887   -0.2607    5.7967 H   0  0
   -2.9947   -1.8618    3.2582 H   0  0
   -1.8985   -3.2551    3.1328 H   0  0
   -0.0851   -3.2606    5.1891 H   0  0
   -0.6694   -2.5362    6.6897 H   0  0
   -4.1482   -4.3272    3.9200 H   0  0
  1  2  1  0
  1  4  2  0
  2  5  2  0
  3  6  1  0
  3  7  2  0
  4  8  1  0
  5  9  1  0
  6 10  2  0
  7 15  1  0
  8  9  2  0
  8 12  1  0
  9 13  1  0
 10 11  1  0
 10 15  1  0
 11 16  1  0
 11 17  2  0
 12 14  1  0
 13 16  1  0
 14 16  1  0
  1 18  1  0
  2 19  1  0
  3 20  1  0
  4 21  1  0
  5 22  1  0
  6 23  1  0
  7 24  1  0
 12 25  1  0
 12 26  1  0
 13 27  1  0
 13 28  1  0
 14 29  1  0
 14 30  1  0
 15 31  1  0
M  END
> <Name>
BR020421

$$$$
BR020422
  SciTegic05062102053D

 37 38  0  0  0  0            999 V2000
   -8.1776    0.0943   -2.0988 C   0  0
   -6.9045    0.7147   -2.0627 C   0  0
   -8.4647   -0.1794   -3.4179 C   0  0
   -6.4524    0.8015   -3.3610 C   0  0
   -5.1733    1.3721   -3.8563 C   0  0
   -1.0153   -1.4848   -2.6590 C   0  0
   -0.0336   -0.4938   -0.6009 C   0  0
    0.2138   -2.3742   -2.7395 C   0  0
    1.1446   -1.4348   -0.7874 C   0  0
   -1.9373    1.4551   -3.2263 C   0  0
   -3.0557    2.4939   -3.2134 C   0  0
   -1.7745    0.7642   -1.8782 C   0  0
   -7.4090    0.2552   -4.1761 N   0  0
   -4.3231    1.8842   -2.8879 N   0  0
   -0.6288   -0.2033   -1.9587 N   0  3
   -4.9478    1.3808   -5.0637 O   0  0
    0.7272   -2.6386   -1.4331 O   0  0
   -8.8162   -0.1275   -1.2554 H   0  0
   -6.3780    1.0593   -1.1832 H   0  0
   -9.3242   -0.6401   -3.8841 H   0  0
   -1.3857   -1.2240   -3.6551 H   0  0
   -1.8112   -1.9487   -2.0663 H   0  0
   -0.8234   -0.9505    0.0054 H   0  0
    0.2807    0.4580   -0.1622 H   0  0
   -0.0535   -3.3344   -3.1915 H   0  0
    0.9995   -1.9251   -3.3590 H   0  0
    1.9491   -0.9673   -1.3676 H   0  0
    1.5576   -1.7083    0.1886 H   0  0
   -0.9916    1.9290   -3.5186 H   0  0
   -2.1680    0.7051   -3.9931 H   0  0
   -2.8339    3.2611   -2.4644 H   0  0
   -3.1271    2.9931   -4.1855 H   0  0
   -1.5347    1.4680   -1.0760 H   0  0
   -2.6608    0.1834   -1.6063 H   0  0
   -7.3481    0.1827   -5.1826 H   0  0
   -4.6069    1.8980   -1.9130 H   0  0
    0.1009    0.2510   -2.5251 H   0  0
  1  2  1  0
  1  3  2  0
  2  4  2  0
  3 13  1  0
  4  5  1  0
  4 13  1  0
  5 14  1  0
  5 16  2  0
  6  8  1  0
  6 15  1  0
  7  9  1  0
  7 15  1  0
  8 17  1  0
  9 17  1  0
 10 11  1  0
 10 12  1  0
 11 14  1  0
 12 15  1  0
  1 18  1  0
  2 19  1  0
  3 20  1  0
  6 21  1  0
  6 22  1  0
  7 23  1  0
  7 24  1  0
  8 25  1  0
  8 26  1  0
  9 27  1  0
  9 28  1  0
 10 29  1  0
 10 30  1  0
 11 31  1  0
 11 32  1  0
 12 33  1  0
 12 34  1  0
 13 35  1  0
 14 36  1  0
 15 37  1  0
M  CHG  1  15   1
M  END
> <Name>
BR020422

$$$$
BR020423
  SciTegic05062102053D

 27 28  0  0  0  0            999 V2000
   -3.7917    0.5995    1.2566 C   0  0
   -2.7589    1.2125    0.5052 C   0  0
   -4.3099   -0.4196    0.4884 C   0  0
   -2.6776    0.5495   -0.6995 C   0  0
    0.4314   -0.0209   -1.0053 C   0  0
   -0.1558   -0.3888   -3.3931 C   0  0
    1.4484   -1.1402   -1.1498 C   0  0
    0.8921   -1.4888   -3.4144 C   0  0
   -1.7745    0.7642   -1.8782 C   0  0
   -3.6253   -0.4404   -0.6987 N   0  0
   -0.6909   -0.2699   -1.9853 N   0  3
    1.9411   -1.1996   -2.4891 O   0  0
   -4.1229    0.8704    2.2492 H   0  0
   -2.1435    2.0470    0.8120 H   0  0
   -5.1029   -1.1285    0.6804 H   0  0
    0.0001   -0.0002    0.0001 H   0  0
    0.8656    0.9538   -1.2534 H   0  0
    0.2740    0.5837   -3.6570 H   0  0
   -0.9965   -0.6249   -4.0523 H   0  0
    2.3016   -0.9520   -0.4905 H   0  0
    1.0240   -2.1123   -0.8711 H   0  0
    0.4570   -2.4679   -3.1812 H   0  0
    1.3386   -1.5551   -4.4115 H   0  0
   -2.3356    0.7304   -2.8182 H   0  0
   -1.2758    1.7378   -1.8221 H   0  0
   -3.7962   -1.0875   -1.4563 H   0  0
   -1.1205   -1.1730   -1.7409 H   0  0
  1  2  1  0
  1  3  2  0
  2  4  2  0
  3 10  1  0
  4  9  1  0
  4 10  1  0
  5  7  1  0
  5 11  1  0
  6  8  1  0
  6 11  1  0
  7 12  1  0
  8 12  1  0
  9 11  1  0
  1 13  1  0
  2 14  1  0
  3 15  1  0
  5 16  1  0
  5 17  1  0
  6 18  1  0
  6 19  1  0
  7 20  1  0
  7 21  1  0
  8 22  1  0
  8 23  1  0
  9 24  1  0
  9 25  1  0
 10 26  1  0
 11 27  1  0
M  CHG  1  11   1
M  END
> <Name>
BR020423

$$$$
BR020424
  SciTegic05062102053D

 31 32  0  0  0  0            999 V2000
    2.1849   -3.7776    3.9252 C   0  0
    1.8218   -2.4335    4.1873 C   0  0
    1.0611   -4.4241    3.4601 C   0  0
    0.4870   -2.2996    3.8746 C   0  0
    0.0739    0.8414    0.7021 C   0  0
   -2.2890    0.8001    1.2142 C   0  0
    0.4205    0.3226    2.0938 C   0  0
   -2.0110    0.2802    2.6207 C   0  0
   -1.4706    2.1442   -0.6103 C   0  0
   -0.4244   -1.1105    3.9543 C   0  0
    0.0350   -3.5159    3.4339 N   0  0
   -1.1728    1.6178    0.7213 N   0  0
   -0.7261   -0.5090    2.6111 N   0  3
    3.1587   -4.2268    4.0606 H   0  0
    2.4661   -1.6509    4.5637 H   0  0
    0.9011   -5.4463    3.1475 H   0  0
    0.9003    1.4765    0.3608 H   0  0
    0.0000    0.0000    0.0000 H   0  0
   -2.4839   -0.0432    0.5383 H   0  0
   -3.2029    1.4053    1.2503 H   0  0
    1.3038   -0.3235    2.0572 H   0  0
    0.5920    1.1382    2.8060 H   0  0
   -1.8991    1.0951    3.3453 H   0  0
   -2.8081   -0.3956    2.9478 H   0  0
   -2.3992    2.7204   -0.5875 H   0  0
   -1.5828    1.3240   -1.3246 H   0  0
   -0.6605    2.7956   -0.9491 H   0  0
   -1.3873   -1.3790    4.4020 H   0  0
    0.0165   -0.3143    4.5637 H   0  0
   -0.9100   -3.7159    3.1355 H   0  0
   -0.8536   -1.2956    1.9594 H   0  0
  1  2  1  0
  1  3  2  0
  2  4  2  0
  3 11  1  0
  4 10  1  0
  4 11  1  0
  5  7  1  0
  5 12  1  0
  6  8  1  0
  6 12  1  0
  7 13  1  0
  8 13  1  0
  9 12  1  0
 10 13  1  0
  1 14  1  0
  2 15  1  0
  3 16  1  0
  5 17  1  0
  5 18  1  0
  6 19  1  0
  6 20  1  0
  7 21  1  0
  7 22  1  0
  8 23  1  0
  8 24  1  0
  9 25  1  0
  9 26  1  0
  9 27  1  0
 10 28  1  0
 10 29  1  0
 11 30  1  0
 13 31  1  0
M  CHG  1  13   1
M  END
> <Name>
BR020424

$$$$
BR020425
  SciTegic05062102053D

 33 35  0  0  1  0            999 V2000
    1.8816   -0.3692   -0.9774 C   0  0
    0.4957   -0.4382   -0.8613 C   0  0
   -3.7481   -5.1880   -5.1638 C   0  0
    2.5175   -0.9287   -2.0854 C   0  0
   -0.2560   -1.0710   -1.8506 C   0  0
   -3.0388   -4.0678   -5.6629 C   0  0
   -2.8270   -6.1825   -4.9191 C   0  0
    1.7710   -1.5568   -3.0922 C   0  0
    0.3738   -1.6442   -2.9639 C   0  0
   -1.7058   -4.4119   -5.7082 C   0  0
    2.4816   -2.1865   -4.2632 C   0  0
   -0.4603   -2.2968   -4.0322 C   0  0
    1.5734   -2.4179   -5.4659 C   0  0
   -0.5051   -3.6281   -6.1495 C   0  0
   -1.5889   -5.6996   -5.2541 N   0  0
    0.3362   -3.1447   -5.0029 N   0  3
    2.4679    0.1197   -0.2048 H   0  0
    0.0001    0.0006   -0.0002 H   0  0
   -4.8139   -5.2633   -5.0004 H   0  0
    3.6006   -0.8722   -2.1602 H   0  0
   -1.3376   -1.1157   -1.7497 H   0  0
   -3.4578   -3.1153   -5.9569 H   0  0
   -2.9427   -7.1875   -4.5385 H   0  0
    3.3176   -1.5498   -4.5768 H   0  0
    2.9030   -3.1437   -3.9313 H   0  0
   -1.2018   -2.9669   -3.5830 H   0  0
   -0.9687   -1.5241   -4.6211 H   0  0
    1.2515   -1.4787   -5.9307 H   0  0
    2.0732   -3.0438   -6.2124 H   0  0
    0.1495   -4.2320   -6.7872 H   0  0
   -0.7998   -2.7404   -6.7196 H   0  0
   -0.7237   -6.2169   -5.1777 H   0  0
    0.6470   -3.9838   -4.4937 H   0  0
  1  2  1  0
  1  4  2  0
  2  5  2  0
  3  6  1  0
  3  7  2  0
  4  8  1  0
  5  9  1  0
  6 10  2  0
  7 15  1  0
  8  9  2  0
  8 11  1  0
  9 12  1  0
 10 14  1  0
 10 15  1  0
 11 13  1  0
 12 16  1  0
 13 16  1  0
 14 16  1  0
  1 17  1  0
  2 18  1  0
  3 19  1  0
  4 20  1  0
  5 21  1  0
  6 22  1  0
  7 23  1  0
 11 24  1  0
 11 25  1  0
 12 26  1  0
 12 27  1  0
 13 28  1  0
 13 29  1  0
 14 30  1  0
 14 31  1  0
 15 32  1  0
 16 33  1  0
M  CHG  1  16   1
M  END
> <Name>
BR020425

$$$$
BR020426
  SciTegic05062102053D

 39 40  0  0  0  0            999 V2000
    0.9422    5.8591   -5.9563 C   0  0
    0.9834    4.4450   -5.8807 C   0  0
   -0.3832    6.2295   -6.0134 C   0  0
   -0.3182    3.9943   -5.8941 C   0  0
   -1.2309   -1.6449   -1.4977 C   0  0
    0.5350    0.0816   -1.2111 C   0  0
   -0.1169   -2.6640   -1.6668 C   0  0
    1.5579   -1.0267   -1.3944 C   0  0
   -0.8747    2.6021   -5.8383 C   0  0
   -2.7145    0.6854   -3.0765 C   0  0
   -1.7745    0.7642   -1.8782 C   0  0
   -2.0732    0.9138   -4.4412 C   0  0
   -1.1403    5.0878   -5.9752 N   0  0
   -0.7194   -0.3012   -1.9609 N   0  3
   -1.4575    2.2594   -4.5114 N   0  3
    1.0381   -2.2712   -0.9239 O   0  0
    1.7857    6.5349   -5.9684 H   0  0
    1.8679    3.8256   -5.8234 H   0  0
   -0.8528    7.2009   -6.0784 H   0  0
   -2.1023   -1.9006   -2.1081 H   0  0
   -1.5213   -1.5346   -0.4472 H   0  0
    0.2560    0.2039   -0.1589 H   0  0
    0.8950    1.0296   -1.6221 H   0  0
   -0.4433   -3.6357   -1.2834 H   0  0
    0.1528   -2.7988   -2.7212 H   0  0
    1.8615   -1.1290   -2.4431 H   0  0
    2.4563   -0.8011   -0.8113 H   0  0
   -1.6716    2.4644   -6.5769 H   0  0
   -0.0980    1.8573   -6.0426 H   0  0
   -3.5167    1.4201   -2.9317 H   0  0
   -3.1994   -0.2989   -3.0858 H   0  0
   -2.3221    0.5880   -0.9472 H   0  0
   -1.2579    1.7253   -1.8071 H   0  0
   -1.2880    0.1873   -4.6677 H   0  0
   -2.8283    0.8757   -5.2322 H   0  0
   -2.1504    5.0596   -6.0037 H   0  0
   -0.4694   -0.3913   -2.9555 H   0  0
   -0.7209    2.3368   -3.7940 H   0  0
   -2.1606    2.9714   -4.2626 H   0  0
  1  2  1  0
  1  3  2  0
  2  4  2  0
  3 13  1  0
  4  9  1  0
  4 13  1  0
  5  7  1  0
  5 14  1  0
  6  8  1  0
  6 14  1  0
  7 16  1  0
  8 16  1  0
  9 15  1  0
 10 11  1  0
 10 12  1  0
 11 14  1  0
 12 15  1  0
  1 17  1  0
  2 18  1  0
  3 19  1  0
  5 20  1  0
  5 21  1  0
  6 22  1  0
  6 23  1  0
  7 24  1  0
  7 25  1  0
  8 26  1  0
  8 27  1  0
  9 28  1  0
  9 29  1  0
 10 30  1  0
 10 31  1  0
 11 32  1  0
 11 33  1  0
 12 34  1  0
 12 35  1  0
 13 36  1  0
 14 37  1  0
 15 38  1  0
 15 39  1  0
M  CHG  2  14   1  15   1
M  END
> <Name>
BR020426

$$$$
BR020427
  SciTegic05062102053D

 50 52  0  0  0  0            999 V2000
   -2.1503    2.9402   -0.0407 C   0  0
    0.0467    6.1072   -6.4773 C   0  0
   -1.4250    2.1286   -0.9476 C   0  0
    0.4660    4.8069   -6.1024 C   0  0
   -2.3626    4.1546   -0.6549 C   0  0
   -1.3059    6.0462   -6.7305 C   0  0
   -1.2161    2.8719   -2.0883 C   0  0
   -0.6432    3.9908   -6.1381 C   0  0
   -5.9483    0.3998   -3.6415 C   0  0
   -5.6078    2.7935   -3.0622 C   0  0
   -6.4112    0.1858   -2.2104 C   0  0
   -6.0888    2.4560   -1.6611 C   0  0
   -0.5108    2.5285   -3.3672 C   0  0
   -0.7944    2.5280   -5.8411 C   0  0
   -3.2974    0.8328   -5.3471 C   0  0
   -4.4244    1.8105   -5.0314 C   0  0
   -2.0732    0.9138   -4.4412 C   0  0
   -1.7901    4.1018   -1.8990 N   0  0
   -1.7144    4.7548   -6.5214 N   0  0
   -4.9774    1.5568   -3.6584 N   0  3
   -1.4583    2.2597   -4.5117 N   0  3
   -7.0188    1.3725   -1.6978 O   0  0
   -2.4818    2.6704    0.9520 H   0  0
    0.6622    6.9922   -6.5551 H   0  0
   -1.0923    1.1129   -0.7833 H   0  0
    1.4687    4.5020   -5.8364 H   0  0
   -2.8679    5.0487   -0.3177 H   0  0
   -2.0110    6.8044   -7.0406 H   0  0
   -5.4272   -0.4810   -4.0288 H   0  0
   -6.7818    0.6687   -4.2996 H   0  0
   -6.4386    3.0785   -3.7168 H   0  0
   -4.8490    3.5815   -3.0452 H   0  0
   -7.1611   -0.6108   -2.1794 H   0  0
   -5.5833   -0.1146   -1.5570 H   0  0
   -5.2548    2.2012   -0.9963 H   0  0
   -6.6034    3.3199   -1.2285 H   0  0
    0.1467    3.3437   -3.6880 H   0  0
    0.1045    1.6298   -3.2506 H   0  0
   -1.4038    2.0302   -6.6031 H   0  0
    0.1794    2.0273   -5.8131 H   0  0
   -2.9839    0.9951   -6.3861 H   0  0
   -3.6898   -0.1910   -5.3025 H   0  0
   -5.2557    1.6784   -5.7308 H   0  0
   -4.1007    2.8544   -5.0613 H   0  0
   -2.3092    0.7214   -3.3911 H   0  0
   -1.3063    0.2042   -4.7665 H   0  0
   -1.7918    4.8566   -2.5715 H   0  0
   -2.6614    4.4198   -6.6344 H   0  0
   -4.1786    1.2992   -3.0623 H   0  0
   -2.2150    2.9607   -4.4251 H   0  0
  1  3  1  0
  1  5  2  0
  2  4  1  0
  2  6  2  0
  3  7  2  0
  4  8  2  0
  5 18  1  0
  6 19  1  0
  7 13  1  0
  7 18  1  0
  8 14  1  0
  8 19  1  0
  9 11  1  0
  9 20  1  0
 10 12  1  0
 10 20  1  0
 11 22  1  0
 12 22  1  0
 13 21  1  0
 14 21  1  0
 15 16  1  0
 15 17  1  0
 16 20  1  0
 17 21  1  0
  1 23  1  0
  2 24  1  0
  3 25  1  0
  4 26  1  0
  5 27  1  0
  6 28  1  0
  9 29  1  0
  9 30  1  0
 10 31  1  0
 10 32  1  0
 11 33  1  0
 11 34  1  0
 12 35  1  0
 12 36  1  0
 13 37  1  0
 13 38  1  0
 14 39  1  0
 14 40  1  0
 15 41  1  0
 15 42  1  0
 16 43  1  0
 16 44  1  0
 17 45  1  0
 17 46  1  0
 18 47  1  0
 19 48  1  0
 20 49  1  0
 21 50  1  0
M  CHG  2  20   1  21   1
M  END
> <Name>
BR020427

$$$$
BR020428
  SciTegic05062102053D

 10 10  0  0  0  0            999 V2000
    0.5881    0.8905    1.8661 C   0  0
   -0.2066    0.1010    1.0601 C   0  0
   -1.5246   -0.4612    2.8247 C   0  0
    0.2261    0.9401    3.1967 C   0  0
   -1.2746   -0.5912    1.5079 N   0  0
   -0.8283    0.2746    3.7121 N   0  0
    1.1137    1.8769    4.3263 Cl  0  0
    1.4372    1.4310    1.4675 H   0  0
    0.0002   -0.0002    0.0001 H   0  0
   -2.3768   -1.0066    3.2114 H   0  0
  1  2  2  0
  1  4  1  0
  2  5  1  0
  3  5  2  0
  3  6  1  0
  4  6  2  0
  4  7  1  0
  1  8  1  0
  2  9  1  0
  3 10  1  0
M  END
> <Name>
BR020428

$$$$
BR020429
  SciTegic05062102053D

 28 29  0  0  0  0            999 V2000
    0.6787    3.5662   -1.1519 C   0  0
    0.3762    4.6810   -0.3969 C   0  0
    0.6512    3.5110    1.5325 C   0  0
    0.9663    2.4213   -0.4374 C   0  0
    0.9345   -0.0289   -0.5691 C   0  0
    2.4324    1.2733   -2.0711 C   0  0
    0.7814   -1.0932   -1.6473 C   0  0
    2.2800    0.2030   -3.1445 C   0  0
    1.9979   -2.2504   -3.4916 C   0  0
    0.3530    4.6890    0.9521 N   0  0
    0.9620    2.3578    0.9103 N   0  0
    1.2781    1.2681   -1.1668 N   0  0
    2.0314   -1.1312   -2.4893 N   0  3
    0.6864    3.6025   -2.2341 H   0  0
    0.1374    5.6275   -0.8702 H   0  0
    0.6403    3.4887    2.6153 H   0  0
   -0.0097    0.0474   -0.0158 H   0  0
    1.7134   -0.3268    0.1450 H   0  0
    3.3537    1.1014   -1.4993 H   0  0
    2.5262    2.2500   -2.5615 H   0  0
    0.6528   -2.0831   -1.1976 H   0  0
   -0.0613   -0.8801   -2.3153 H   0  0
    1.4307    0.4094   -3.8060 H   0  0
    3.1957    0.1171   -3.7387 H   0  0
    1.1622   -2.0667   -4.1693 H   0  0
    2.9479   -2.2460   -4.0293 H   0  0
    1.8610   -3.1850   -2.9443 H   0  0
    2.8241   -1.3231   -1.8617 H   0  0
  1  2  1  0
  1  4  2  0
  2 10  2  0
  3 10  1  0
  3 11  2  0
  4 11  1  0
  4 12  1  0
  5  7  1  0
  5 12  1  0
  6  8  1  0
  6 12  1  0
  7 13  1  0
  8 13  1  0
  9 13  1  0
  1 14  1  0
  2 15  1  0
  3 16  1  0
  5 17  1  0
  5 18  1  0
  6 19  1  0
  6 20  1  0
  7 21  1  0
  7 22  1  0
  8 23  1  0
  8 24  1  0
  9 25  1  0
  9 26  1  0
  9 27  1  0
 13 28  1  0
M  CHG  1  13   1
M  END
> <Name>
BR020429

$$$$
BR020430
  SciTegic05062102053D

 29 31  0  0  1  0            999 V2000
    0.5434   -1.3503    1.5861 C   0  0
    0.3123   -1.0085    0.2550 C   0  0
    0.9535   -2.6420    1.9137 C   0  0
    0.4938   -1.9573   -0.7518 C   0  0
    1.5919   -6.4633   -3.2673 C   0  0
    1.4875   -7.4805   -4.1940 C   0  0
    0.2207   -8.7173   -2.7683 C   0  0
    1.1208   -3.6001    0.9084 C   0  0
    0.8920   -3.2614   -0.4316 C   0  0
    0.9454   -6.6800   -2.0675 C   0  0
    1.5767   -4.9937    1.2166 C   0  0
    1.1588   -4.2697   -1.5230 C   0  0
    0.8438   -5.9868    0.3183 C   0  0
    0.8074   -8.6253   -3.9770 N   0  0
    0.2480   -7.7994   -1.7833 N   0  0
    1.0267   -5.6813   -1.1096 N   0  0
    0.4043   -0.6102    2.3687 H   0  0
   -0.0058   -0.0016    0.0008 H   0  0
    1.1372   -2.8946    2.9528 H   0  0
    0.3269   -1.6721   -1.7862 H   0  0
    2.1478   -5.5592   -3.4817 H   0  0
    1.9619   -7.4003   -5.1663 H   0  0
   -0.3324   -9.6265   -2.5671 H   0  0
    2.6532   -5.0555    1.0432 H   0  0
    1.3749   -5.2430    2.2597 H   0  0
    0.4584   -4.0679   -2.3558 H   0  0
    2.1831   -4.1117   -1.9091 H   0  0
    1.2215   -7.0057    0.5445 H   0  0
   -0.2410   -6.0073    0.5578 H   0  0
  1  2  1  0
  1  3  2  0
  2  4  2  0
  3  8  1  0
  4  9  1  0
  5  6  1  0
  5 10  2  0
  6 14  2  0
  7 14  1  0
  7 15  2  0
  8  9  2  0
  8 11  1  0
  9 12  1  0
 10 15  1  0
 10 16  1  0
 11 13  1  0
 12 16  1  0
 13 16  1  0
  1 17  1  0
  2 18  1  0
  3 19  1  0
  4 20  1  0
  5 21  1  0
  6 22  1  0
  7 23  1  0
 11 24  1  0
 11 25  1  0
 12 26  1  0
 12 27  1  0
 13 28  1  0
 13 29  1  0
M  END
> <Name>
BR020430

$$$$
BR020431
  SciTegic05062102053D

 35 36  0  0  0  0            999 V2000
   -4.7830    4.6797   -3.6940 C   0  0
   -5.6413    5.7181   -3.9929 C   0  0
   -4.9190    5.7617   -6.1477 C   0  0
   -3.9992    4.2336   -4.7385 C   0  0
   -1.1734   -1.5306   -2.6634 C   0  0
   -0.0727   -0.5867   -0.6438 C   0  0
   -0.0020   -2.4917   -2.7737 C   0  0
    1.0417   -1.5969   -0.8581 C   0  0
   -1.9373    1.4551   -3.2263 C   0  0
   -2.9915    2.5584   -3.1881 C   0  0
   -1.7745    0.7642   -1.8782 C   0  0
   -5.7356    6.2850   -5.2135 N   0  0
   -4.0416    4.7535   -5.9828 N   0  0
   -3.1233    3.1916   -4.4787 N   0  0
   -0.6909   -0.2699   -1.9853 N   0  3
    0.5345   -2.7779   -1.4813 O   0  0
   -4.7384    4.2523   -2.7002 H   0  0
   -6.2974    6.1351   -3.2361 H   0  0
   -4.9739    6.1981   -7.1375 H   0  0
   -1.5581   -1.2546   -3.6499 H   0  0
   -1.9769   -1.9429   -2.0433 H   0  0
   -0.8692   -0.9920   -0.0103 H   0  0
    0.3104    0.3476   -0.2224 H   0  0
   -0.3391   -3.4372   -3.2097 H   0  0
    0.7895   -2.0938   -3.4201 H   0  0
    1.8543   -1.1815   -1.4659 H   0  0
    1.4675   -1.8883    0.1073 H   0  0
   -0.9746    1.8704   -3.5508 H   0  0
   -2.2351    0.7153   -3.9798 H   0  0
   -3.9595    2.1300   -2.9082 H   0  0
   -2.7333    3.3101   -2.4348 H   0  0
   -1.4692    1.4575   -1.0893 H   0  0
   -2.6849    0.2386   -1.5752 H   0  0
   -2.5407    2.8553   -5.2374 H   0  0
    0.0468    0.1368   -2.5771 H   0  0
  1  2  1  0
  1  4  2  0
  2 12  2  0
  3 12  1  0
  3 13  2  0
  4 13  1  0
  4 14  1  0
  5  7  1  0
  5 15  1  0
  6  8  1  0
  6 15  1  0
  7 16  1  0
  8 16  1  0
  9 10  1  0
  9 11  1  0
 10 14  1  0
 11 15  1  0
  1 17  1  0
  2 18  1  0
  3 19  1  0
  5 20  1  0
  5 21  1  0
  6 22  1  0
  6 23  1  0
  7 24  1  0
  7 25  1  0
  8 26  1  0
  8 27  1  0
  9 28  1  0
  9 29  1  0
 10 30  1  0
 10 31  1  0
 11 32  1  0
 11 33  1  0
 14 34  1  0
 15 35  1  0
M  CHG  1  15   1
M  END
> <Name>
BR020431

$$$$
BR020432
  SciTegic05062102053D

 16 16  0  0  0  0            999 V2000
    1.8851   -1.0363   -0.1124 C   0  0
    2.8783   -1.6520    2.0022 C   0  0
    0.8066   -0.4630    0.5610 C   0  0
    1.7997   -1.0786    2.6757 C   0  0
    2.9210   -1.6309    0.6081 C   0  0
    0.7638   -0.4841    1.9551 C   0  0
    4.9013   -3.0446    0.5622 N   0  0
    4.0101   -2.2121   -0.0736 N   0  0
   -0.5670    0.2233    2.7855 Cl  0  0
    1.9083   -1.0155   -1.1989 H   0  0
    3.6795   -2.1140    2.5734 H   0  0
    0.0058   -0.0049   -0.0139 H   0  0
    1.7794   -1.1044    3.7623 H   0  0
    5.8428   -2.7888    0.2687 H   0  0
    4.7513   -3.9957    0.2278 H   0  0
    4.0097   -2.1811   -1.0832 H   0  0
  1  3  1  0
  1  5  2  0
  2  4  2  0
  2  5  1  0
  3  6  2  0
  4  6  1  0
  5  8  1  0
  6  9  1  0
  7  8  1  0
  1 10  1  0
  2 11  1  0
  3 12  1  0
  4 13  1  0
  7 14  1  0
  7 15  1  0
  8 16  1  0
M  END
> <Name>
BR020432

$$$$
BR020433
  SciTegic05062102053D

 29 29  0  0  0  0            999 V2000
    4.6025    0.5942   -4.9832 C   0  0
    4.1223    1.8727   -4.6997 C   0  0
    4.1726   -0.4960   -4.2266 C   0  0
    3.2121    2.0610   -3.6596 C   0  0
    3.2625   -0.3077   -3.1865 C   0  0
    2.7822    0.9709   -2.9030 C   0  0
    0.5878    0.3753   -0.1825 C   0  0
    0.1062   -0.8072    0.6050 C   0  0
    0.0347    1.7152    0.2101 C   0  0
    0.4055   -1.2713    4.2019 C   0  0
   -0.0096   -1.6368    2.7927 C   0  0
    1.4317    0.1140   -1.1291 N   0  0
    1.8658    1.1601   -1.8558 N   0  0
   -0.4777   -1.7303    0.0730 O   0  0
    0.4154   -0.6040    1.8993 O   0  0
    5.3114    0.4476   -5.7930 H   0  0
    4.4571    2.7212   -5.2887 H   0  0
    4.5468   -1.4916   -4.4475 H   0  0
    2.8440    3.0613   -3.4467 H   0  0
    2.9344   -1.1647   -2.6038 H   0  0
    0.6738    2.1721    0.9705 H   0  0
   -0.9718    1.6115    0.6248 H   0  0
   -0.0130    2.3635   -0.6690 H   0  0
    1.4920   -1.1717    4.2753 H   0  0
   -0.0575   -0.3275    4.5082 H   0  0
    0.0720   -2.0348    4.9126 H   0  0
   -1.0973   -1.7348    2.7263 H   0  0
    0.4545   -2.5795    2.4880 H   0  0
    1.5388    2.1023   -1.6790 H   0  0
  1  2  1  0
  1  3  2  0
  2  4  2  0
  3  5  1  0
  4  6  1  0
  5  6  2  0
  6 13  1  0
  7  8  1  0
  7  9  1  0
  7 12  2  0
  8 14  2  0
  8 15  1  0
 10 11  1  0
 11 15  1  0
 12 13  1  0
  1 16  1  0
  2 17  1  0
  3 18  1  0
  4 19  1  0
  5 20  1  0
  9 21  1  0
  9 22  1  0
  9 23  1  0
 10 24  1  0
 10 25  1  0
 10 26  1  0
 11 27  1  0
 11 28  1  0
 13 29  1  0
M  END
> <Name>
BR020433

$$$$
BR020434
  SciTegic05062102053D

 29 29  0  0  0  0            999 V2000
    4.4887   -2.3009   -4.2854 C   0  0
    3.9448   -3.2670   -3.4389 C   0  0
    4.1296   -0.9613   -4.1365 C   0  0
    3.0418   -2.8934   -2.4435 C   0  0
    3.2266   -0.5877   -3.1412 C   0  0
    2.6827   -1.5538   -2.2947 C   0  0
    0.5878    0.3753   -0.1825 C   0  0
    0.1062   -0.8072    0.6050 C   0  0
    0.0347    1.7152    0.2101 C   0  0
    1.5684   -2.0930    3.6793 C   0  0
    0.5713   -2.0407    2.5415 C   0  0
    1.4317    0.1140   -1.1291 N   0  0
    1.7736   -1.1773   -1.2926 N   0  0
   -0.8788   -1.4351    0.2709 O   0  0
    0.9194   -0.9645    1.6662 O   0  0
    5.1917   -2.5920   -5.0606 H   0  0
    4.2244   -4.3098   -3.5549 H   0  0
    4.5532   -0.2091   -4.7959 H   0  0
    2.6236   -3.6539   -1.7891 H   0  0
    2.9543    0.4593   -3.0345 H   0  0
    0.6738    2.1721    0.9705 H   0  0
   -0.9718    1.6115    0.6248 H   0  0
   -0.0130    2.3635   -0.6690 H   0  0
    2.5812   -2.2626    3.3032 H   0  0
    1.5546   -1.1574    4.2480 H   0  0
    1.3128   -2.8950    4.3798 H   0  0
   -0.4394   -1.8708    2.9244 H   0  0
    0.5870   -2.9759    1.9739 H   0  0
    1.3993   -1.9058   -0.6967 H   0  0
  1  2  1  0
  1  3  2  0
  2  4  2  0
  3  5  1  0
  4  6  1  0
  5  6  2  0
  6 13  1  0
  7  8  1  0
  7  9  1  0
  7 12  2  0
  8 14  2  0
  8 15  1  0
 10 11  1  0
 11 15  1  0
 12 13  1  0
  1 16  1  0
  2 17  1  0
  3 18  1  0
  4 19  1  0
  5 20  1  0
  9 21  1  0
  9 22  1  0
  9 23  1  0
 10 24  1  0
 10 25  1  0
 10 26  1  0
 11 27  1  0
 11 28  1  0
 13 29  1  0
M  END
> <Name>
BR020434

$$$$
BR020435
  SciTegic05062102053D

 29 29  0  0  0  0            999 V2000
    3.2114    2.0618   -3.6589 C   0  0
    3.2648   -0.3069   -3.1861 C   0  0
    4.1231    1.8750   -4.6978 C   0  0
    4.1765   -0.4937   -4.2251 C   0  0
    2.7822    0.9709   -2.9030 C   0  0
    4.6057    0.5973   -4.9810 C   0  0
    0.5878    0.3753   -0.1825 C   0  0
    0.1062   -0.8072    0.6050 C   0  0
    0.0347    1.7152    0.2101 C   0  0
    0.4055   -1.2713    4.2019 C   0  0
   -0.0096   -1.6368    2.7927 C   0  0
    1.4317    0.1140   -1.1291 N   0  0
    1.8658    1.1601   -1.8558 N   0  0
   -0.4777   -1.7303    0.0730 O   0  0
    0.4154   -0.6040    1.8993 O   0  0
    5.7304    0.3672   -6.2629 Cl  0  0
    2.8423    3.0617   -3.4457 H   0  0
    2.9380   -1.1637   -2.6023 H   0  0
    4.4499    2.7348   -5.2771 H   0  0
    4.5451   -1.4951   -4.4327 H   0  0
    0.6738    2.1721    0.9705 H   0  0
   -0.9718    1.6115    0.6248 H   0  0
   -0.0130    2.3635   -0.6690 H   0  0
    1.4920   -1.1717    4.2753 H   0  0
   -0.0575   -0.3275    4.5082 H   0  0
    0.0720   -2.0348    4.9126 H   0  0
   -1.0973   -1.7348    2.7263 H   0  0
    0.4545   -2.5795    2.4880 H   0  0
    1.5388    2.1023   -1.6790 H   0  0
  1  3  2  0
  1  5  1  0
  2  4  1  0
  2  5  2  0
  3  6  1  0
  4  6  2  0
  5 13  1  0
  6 16  1  0
  7  8  1  0
  7  9  1  0
  7 12  2  0
  8 14  2  0
  8 15  1  0
 10 11  1  0
 11 15  1  0
 12 13  1  0
  1 17  1  0
  2 18  1  0
  3 19  1  0
  4 20  1  0
  9 21  1  0
  9 22  1  0
  9 23  1  0
 10 24  1  0
 10 25  1  0
 10 26  1  0
 11 27  1  0
 11 28  1  0
 13 29  1  0
M  END
> <Name>
BR020435

$$$$
BR020436
  SciTegic05062102053D

 29 29  0  0  0  0            999 V2000
    3.0410   -2.8937   -2.4426 C   0  0
    3.2256   -0.5889   -3.1431 C   0  0
    3.9423   -3.2688   -3.4389 C   0  0
    4.1269   -0.9639   -4.1394 C   0  0
    2.6827   -1.5538   -2.2947 C   0  0
    4.4852   -2.3039   -4.2873 C   0  0
    0.5878    0.3753   -0.1825 C   0  0
    0.1062   -0.8072    0.6050 C   0  0
    0.0347    1.7152    0.2101 C   0  0
    1.5684   -2.0930    3.6793 C   0  0
    0.5713   -2.0407    2.5415 C   0  0
    1.4317    0.1140   -1.1291 N   0  0
    1.7736   -1.1773   -1.2926 N   0  0
   -0.8788   -1.4351    0.2709 O   0  0
    0.9194   -0.9645    1.6662 O   0  0
    5.5971   -2.7670   -5.5163 Cl  0  0
    2.6228   -3.6535   -1.7874 H   0  0
    2.9520    0.4578   -3.0375 H   0  0
    4.2108   -4.3169   -3.5434 H   0  0
    4.5404   -0.2010   -4.7943 H   0  0
    0.6738    2.1721    0.9705 H   0  0
   -0.9718    1.6115    0.6248 H   0  0
   -0.0130    2.3635   -0.6690 H   0  0
    2.5812   -2.2626    3.3032 H   0  0
    1.5546   -1.1574    4.2480 H   0  0
    1.3128   -2.8950    4.3798 H   0  0
   -0.4394   -1.8708    2.9244 H   0  0
    0.5870   -2.9759    1.9739 H   0  0
    1.3993   -1.9058   -0.6967 H   0  0
  1  3  2  0
  1  5  1  0
  2  4  1  0
  2  5  2  0
  3  6  1  0
  4  6  2  0
  5 13  1  0
  6 16  1  0
  7  8  1  0
  7  9  1  0
  7 12  2  0
  8 14  2  0
  8 15  1  0
 10 11  1  0
 11 15  1  0
 12 13  1  0
  1 17  1  0
  2 18  1  0
  3 19  1  0
  4 20  1  0
  9 21  1  0
  9 22  1  0
  9 23  1  0
 10 24  1  0
 10 25  1  0
 10 26  1  0
 11 27  1  0
 11 28  1  0
 13 29  1  0
M  END
> <Name>
BR020436

$$$$
BR020437
  SciTegic05062102053D

 25 26  0  0  0  0            999 V2000
   -0.7036    1.3640    1.5041 C   0  0
   -0.7671    0.1975    0.7446 C   0  0
   -1.6773    1.6439    2.4698 C   0  0
   -1.8022   -0.7245    0.9247 C   0  0
   -3.8586    0.6897    3.5356 C   0  0
   -2.7304    0.7292    2.6692 C   0  0
   -2.7685   -0.4315    1.8936 C   0  0
   -4.5471   -0.4724    3.2738 C   0  0
   -5.7447   -0.9510    3.8886 C   0  0
   -7.6134   -4.0587    3.2047 C   0  0
   -7.3489   -2.7448    3.9086 C   0  0
   -3.8818   -1.1421    2.2822 N   0  0
   -6.3789   -0.3651    4.7963 O   0  0
   -6.1565   -2.1607    3.3732 O   0  0
    0.1115    2.0654    1.3464 H   0  0
   -0.0004    0.0004   -0.0001 H   0  0
   -1.6155    2.5569    3.0554 H   0  0
   -1.8517   -1.6324    0.3329 H   0  0
   -4.1333    1.4346    4.2706 H   0  0
   -7.7519   -3.9050    2.1308 H   0  0
   -6.7809   -4.7532    3.3580 H   0  0
   -8.5088   -4.5406    3.6109 H   0  0
   -7.2113   -2.9055    4.9821 H   0  0
   -8.1812   -2.0518    3.7537 H   0  0
   -4.1646   -2.0294    1.8892 H   0  0
  1  2  2  0
  1  3  1  0
  2  4  1  0
  3  6  2  0
  4  7  2  0
  5  6  1  0
  5  8  2  0
  6  7  1  0
  7 12  1  0
  8  9  1  0
  8 12  1  0
  9 13  2  0
  9 14  1  0
 10 11  1  0
 11 14  1  0
  1 15  1  0
  2 16  1  0
  3 17  1  0
  4 18  1  0
  5 19  1  0
 10 20  1  0
 10 21  1  0
 10 22  1  0
 11 23  1  0
 11 24  1  0
 12 25  1  0
M  END
> <Name>
BR020437

$$$$
BR020438
  SciTegic05062102053D

 25 26  0  0  0  0            999 V2000
   -1.8022   -0.7245    0.9247 C   0  0
   -0.7671    0.1975    0.7446 C   0  0
   -1.6773    1.6439    2.4698 C   0  0
   -3.8586    0.6897    3.5356 C   0  0
   -2.7304    0.7292    2.6692 C   0  0
   -2.7685   -0.4315    1.8936 C   0  0
   -0.7036    1.3640    1.5041 C   0  0
   -4.5471   -0.4724    3.2738 C   0  0
   -5.7447   -0.9510    3.8886 C   0  0
   -7.6134   -4.0586    3.2048 C   0  0
   -7.3489   -2.7448    3.9088 C   0  0
   -3.8818   -1.1421    2.2822 N   0  0
   -6.3788   -0.3650    4.7964 O   0  0
   -6.1565   -2.1607    3.3733 O   0  0
    0.5888    2.4756    1.2541 Cl  0  0
   -1.8508   -1.6320    0.3322 H   0  0
   -0.0071   -0.0136   -0.0048 H   0  0
   -1.6294    2.5536    3.0627 H   0  0
   -4.1335    1.4343    4.2709 H   0  0
   -7.7520   -3.9050    2.1310 H   0  0
   -6.7809   -4.7532    3.3581 H   0  0
   -8.5089   -4.5406    3.6111 H   0  0
   -7.2112   -2.9055    4.9822 H   0  0
   -8.1812   -2.0518    3.7539 H   0  0
   -4.1641   -2.0297    1.8896 H   0  0
  1  2  1  0
  1  6  2  0
  2  7  2  0
  3  5  2  0
  3  7  1  0
  4  5  1  0
  4  8  2  0
  5  6  1  0
  6 12  1  0
  7 15  1  0
  8  9  1  0
  8 12  1  0
  9 13  2  0
  9 14  1  0
 10 11  1  0
 11 14  1  0
  1 16  1  0
  2 17  1  0
  3 18  1  0
  4 19  1  0
 10 20  1  0
 10 21  1  0
 10 22  1  0
 11 23  1  0
 11 24  1  0
 12 25  1  0
M  END
> <Name>
BR020438

$$$$
BR020439
  SciTegic05062102053D

 18 19  0  0  0  0            999 V2000
   -0.7036    1.3640    1.5041 C   0  0
   -0.7671    0.1975    0.7446 C   0  0
   -1.6773    1.6439    2.4698 C   0  0
   -1.8022   -0.7245    0.9247 C   0  0
   -3.8586    0.6897    3.5356 C   0  0
   -2.7304    0.7292    2.6692 C   0  0
   -2.7685   -0.4315    1.8936 C   0  0
   -4.5471   -0.4724    3.2738 C   0  0
   -5.7447   -0.9510    3.8886 C   0  0
   -3.8818   -1.1421    2.2822 N   0  0
   -6.3051   -2.0247    3.5862 O   0  0
    0.1115    2.0654    1.3464 H   0  0
   -0.0004    0.0004   -0.0001 H   0  0
   -1.6155    2.5569    3.0554 H   0  0
   -1.8517   -1.6324    0.3329 H   0  0
   -4.1333    1.4346    4.2706 H   0  0
   -6.2198   -0.3294    4.6953 H   0  0
   -4.1646   -2.0294    1.8892 H   0  0
  1  2  2  0
  1  3  1  0
  2  4  1  0
  3  6  2  0
  4  7  2  0
  5  6  1  0
  5  8  2  0
  6  7  1  0
  7 10  1  0
  8  9  1  0
  8 10  1  0
  9 11  2  0
  1 12  1  0
  2 13  1  0
  3 14  1  0
  4 15  1  0
  5 16  1  0
  9 17  1  0
 10 18  1  0
M  END
> <Name>
BR020439

$$$$
BR020440
  SciTegic05062102053D

 18 19  0  0  0  0            999 V2000
   -1.8022   -0.7245    0.9247 C   0  0
   -0.7671    0.1975    0.7446 C   0  0
   -1.6773    1.6439    2.4698 C   0  0
   -3.8586    0.6897    3.5356 C   0  0
   -2.7304    0.7292    2.6692 C   0  0
   -2.7685   -0.4315    1.8936 C   0  0
   -0.7036    1.3640    1.5041 C   0  0
   -4.5471   -0.4724    3.2738 C   0  0
   -5.7447   -0.9510    3.8886 C   0  0
   -3.8818   -1.1421    2.2822 N   0  0
   -6.3051   -2.0247    3.5863 O   0  0
    0.5888    2.4756    1.2541 Cl  0  0
   -1.8508   -1.6320    0.3322 H   0  0
   -0.0071   -0.0136   -0.0048 H   0  0
   -1.6294    2.5536    3.0627 H   0  0
   -4.1335    1.4343    4.2709 H   0  0
   -6.2197   -0.3294    4.6953 H   0  0
   -4.1641   -2.0297    1.8896 H   0  0
  1  2  1  0
  1  6  2  0
  2  7  2  0
  3  5  2  0
  3  7  1  0
  4  5  1  0
  4  8  2  0
  5  6  1  0
  6 10  1  0
  7 12  1  0
  8  9  1  0
  8 10  1  0
  9 11  2  0
  1 13  1  0
  2 14  1  0
  3 15  1  0
  4 16  1  0
  9 17  1  0
 10 18  1  0
M  END
> <Name>
BR020440

$$$$
BR020441
  SciTegic05062102053D

 45 47  0  0  0  0            999 V2000
    1.5435    8.2114   -6.0538 C   0  0
    0.1950    8.5582   -6.1086 C   0  0
    1.9356    6.8701   -5.9759 C   0  0
   -0.8025    7.5791   -6.0876 C   0  0
    0.9803    4.4447   -5.8813 C   0  0
    0.9478    5.8655   -5.9532 C   0  0
   -0.3957    6.2424   -6.0095 C   0  0
   -0.3199    3.9950   -5.8948 C   0  0
   -1.2297   -1.6435   -1.4969 C   0  0
    0.5352    0.0841   -1.2106 C   0  0
   -0.1150   -2.6620   -1.6655 C   0  0
    1.5588   -1.0236   -1.3935 C   0  0
   -0.8755    2.6024   -5.8386 C   0  0
   -2.7145    0.6854   -3.0765 C   0  0
   -1.7747    0.7652   -1.8781 C   0  0
   -2.0732    0.9138   -4.4412 C   0  0
   -1.1426    5.0866   -5.9725 N   0  0
   -0.7189   -0.2996   -1.9604 N   0  3
   -1.4583    2.2597   -4.5117 N   0  3
    1.0397   -2.2683   -0.9227 O   0  0
    2.3006    8.9908   -6.0708 H   0  0
   -0.0869    9.6066   -6.1688 H   0  0
    2.9903    6.6135   -5.9343 H   0  0
   -1.8520    7.8502   -6.1297 H   0  0
    1.8619    3.8203   -5.8262 H   0  0
   -2.1009   -1.8999   -2.1073 H   0  0
   -1.5202   -1.5331   -0.4464 H   0  0
    0.2560    0.2065   -0.1584 H   0  0
    0.8946    1.0322   -1.6218 H   0  0
   -0.4408   -3.6338   -1.2819 H   0  0
    0.1549   -2.7969   -2.7199 H   0  0
    1.8626   -1.1260   -2.4421 H   0  0
    2.4570   -0.7973   -0.8103 H   0  0
   -1.6724    2.4640   -6.5773 H   0  0
   -0.0984    1.8580   -6.0426 H   0  0
   -3.5171    1.4196   -2.9320 H   0  0
   -3.1988   -0.2992   -3.0856 H   0  0
   -2.3222    0.5888   -0.9471 H   0  0
   -1.2587    1.7265   -1.8073 H   0  0
   -1.2875    0.1878   -4.6674 H   0  0
   -2.8282    0.8750   -5.2323 H   0  0
   -2.1526    5.0529   -5.9987 H   0  0
   -0.4687   -0.3899   -2.9550 H   0  0
   -0.7219    2.3378   -3.7943 H   0  0
   -2.1619    2.9714   -4.2632 H   0  0
  1  2  2  0
  1  3  1  0
  2  4  1  0
  3  6  2  0
  4  7  2  0
  5  6  1  0
  5  8  2  0
  6  7  1  0
  7 17  1  0
  8 13  1  0
  8 17  1  0
  9 11  1  0
  9 18  1  0
 10 12  1  0
 10 18  1  0
 11 20  1  0
 12 20  1  0
 13 19  1  0
 14 15  1  0
 14 16  1  0
 15 18  1  0
 16 19  1  0
  1 21  1  0
  2 22  1  0
  3 23  1  0
  4 24  1  0
  5 25  1  0
  9 26  1  0
  9 27  1  0
 10 28  1  0
 10 29  1  0
 11 30  1  0
 11 31  1  0
 12 32  1  0
 12 33  1  0
 13 34  1  0
 13 35  1  0
 14 36  1  0
 14 37  1  0
 15 38  1  0
 15 39  1  0
 16 40  1  0
 16 41  1  0
 17 42  1  0
 18 43  1  0
 19 44  1  0
 19 45  1  0
M  CHG  2  18   1  19   1
M  END
> <Name>
BR020441

$$$$
BR020442
  SciTegic05062102053D

 45 47  0  0  0  0            999 V2000
   -0.8022    7.5790   -6.0906 C   0  0
    0.1953    8.5580   -6.1122 C   0  0
    1.9358    6.8699   -5.9776 C   0  0
    0.9803    4.4446   -5.8813 C   0  0
    0.9479    5.8654   -5.9544 C   0  0
   -0.3955    6.2424   -6.0113 C   0  0
    1.5438    8.2112   -6.0567 C   0  0
   -0.3199    3.9950   -5.8948 C   0  0
   -1.2297   -1.6435   -1.4969 C   0  0
    0.5352    0.0841   -1.2106 C   0  0
   -0.1150   -2.6620   -1.6655 C   0  0
    1.5588   -1.0236   -1.3935 C   0  0
   -0.8755    2.6024   -5.8386 C   0  0
   -2.7145    0.6854   -3.0765 C   0  0
   -1.7747    0.7652   -1.8781 C   0  0
   -2.0732    0.9138   -4.4412 C   0  0
   -1.1425    5.0866   -5.9736 N   0  0
   -0.7189   -0.2996   -1.9604 N   0  3
   -1.4583    2.2597   -4.5117 N   0  3
    1.0397   -2.2683   -0.9227 O   0  0
    2.7445    9.4465   -6.0875 Cl  0  0
   -1.8516    7.8505   -6.1336 H   0  0
   -0.1025    9.6026   -6.1735 H   0  0
    2.9871    6.5978   -5.9336 H   0  0
    1.8619    3.8202   -5.8250 H   0  0
   -2.1009   -1.8999   -2.1073 H   0  0
   -1.5202   -1.5331   -0.4464 H   0  0
    0.2560    0.2065   -0.1584 H   0  0
    0.8946    1.0322   -1.6218 H   0  0
   -0.4408   -3.6338   -1.2819 H   0  0
    0.1549   -2.7969   -2.7199 H   0  0
    1.8626   -1.1260   -2.4421 H   0  0
    2.4570   -0.7973   -0.8103 H   0  0
   -1.6724    2.4640   -6.5773 H   0  0
   -0.0984    1.8580   -6.0426 H   0  0
   -3.5171    1.4196   -2.9320 H   0  0
   -3.1988   -0.2992   -3.0856 H   0  0
   -2.3222    0.5888   -0.9471 H   0  0
   -1.2587    1.7265   -1.8073 H   0  0
   -1.2875    0.1878   -4.6674 H   0  0
   -2.8282    0.8750   -5.2323 H   0  0
   -2.1524    5.0527   -6.0005 H   0  0
   -0.4687   -0.3899   -2.9550 H   0  0
   -0.7219    2.3378   -3.7943 H   0  0
   -2.1619    2.9714   -4.2632 H   0  0
  1  2  1  0
  1  6  2  0
  2  7  2  0
  3  5  2  0
  3  7  1  0
  4  5  1  0
  4  8  2  0
  5  6  1  0
  6 17  1  0
  7 21  1  0
  8 13  1  0
  8 17  1  0
  9 11  1  0
  9 18  1  0
 10 12  1  0
 10 18  1  0
 11 20  1  0
 12 20  1  0
 13 19  1  0
 14 15  1  0
 14 16  1  0
 15 18  1  0
 16 19  1  0
  1 22  1  0
  2 23  1  0
  3 24  1  0
  4 25  1  0
  9 26  1  0
  9 27  1  0
 10 28  1  0
 10 29  1  0
 11 30  1  0
 11 31  1  0
 12 32  1  0
 12 33  1  0
 13 34  1  0
 13 35  1  0
 14 36  1  0
 14 37  1  0
 15 38  1  0
 15 39  1  0
 16 40  1  0
 16 41  1  0
 17 42  1  0
 18 43  1  0
 19 44  1  0
 19 45  1  0
M  CHG  2  18   1  19   1
M  END
> <Name>
BR020442

$$$$
BR020443
  SciTegic05062102053D

 18 17  0  0  1  0            999 V2000
   -0.7878    3.3633    0.1661 C   0  0
    1.8507    5.6830   -0.8664 C   0  0
    0.1775    1.9327    1.9837 C   0  0
    0.4267    5.2437   -0.6000 C   0  0
   -0.6205    1.9520    0.6918 C   0  0  1  0  0  0
   -1.8633    3.9351    0.0439 O   0  0
   -1.9053    1.4116    0.9588 O   0  0
    0.4369    3.8960   -0.1184 O   0  0
    2.4487    5.6438    0.0483 H   0  0
    2.3174    5.0422   -1.6217 H   0  0
    1.8721    6.7050   -1.2590 H   0  0
   -0.2909    2.5487    2.7575 H   0  0
    0.2719    0.9091    2.3620 H   0  0
    1.1948    2.3068    1.8209 H   0  0
   -0.1659    5.2852   -1.5188 H   0  0
   -0.0379    5.8845    0.1554 H   0  0
   -0.1440    1.3331   -0.0754 H   0  0
   -1.7682    0.5098    1.2932 H   0  0
  1  5  1  0
  1  6  2  0
  1  8  1  0
  2  4  1  0
  3  5  1  0
  4  8  1  0
  5  7  1  0
  2  9  1  0
  2 10  1  0
  2 11  1  0
  3 12  1  0
  3 13  1  0
  3 14  1  0
  4 15  1  0
  4 16  1  0
  5 17  1  0
  7 18  1  0
M  END
> <Name>
BR020443

$$$$
BR020444
  SciTegic05062102053D

 16 15  0  0  0  0            999 V2000
   -1.8515   -0.3091    1.0168 C   0  0
   -2.2896    1.0473    1.4911 C   0  0
   -1.1820   -0.3833   -0.3219 C   0  0
   -0.1605    3.9110    2.2064 C   0  0
   -1.4659    3.1493    2.1201 C   0  0
   -2.0619   -1.2646    1.7486 O   0  0
   -3.4568    1.2808    1.7380 O   0  0
   -1.2063    1.8353    1.6180 O   0  0
   -0.1021   -0.2634   -0.2033 H   0  0
   -1.4074   -1.3395   -0.7993 H   0  0
   -1.5508    0.4276   -0.9564 H   0  0
    0.5390    3.4111    2.8822 H   0  0
    0.3027    3.9963    1.2180 H   0  0
   -0.3320    4.9308    2.5667 H   0  0
   -2.1609    3.6545    1.4428 H   0  0
   -1.9270    3.0642    3.1086 H   0  0
  1  2  1  0
  1  3  1  0
  1  6  2  0
  2  7  2  0
  2  8  1  0
  4  5  1  0
  5  8  1  0
  3  9  1  0
  3 10  1  0
  3 11  1  0
  4 12  1  0
  4 13  1  0
  4 14  1  0
  5 15  1  0
  5 16  1  0
M  END
> <Name>
BR020444

$$$$
BR020445
  SciTegic05062102053D

 20 21  0  0  0  0            999 V2000
   -0.7036    1.3640    1.5041 C   0  0
   -0.7671    0.1975    0.7446 C   0  0
   -1.6773    1.6439    2.4698 C   0  0
   -1.8022   -0.7245    0.9247 C   0  0
   -3.8586    0.6897    3.5356 C   0  0
   -2.7304    0.7292    2.6692 C   0  0
   -2.7685   -0.4315    1.8936 C   0  0
   -4.5471   -0.4724    3.2738 C   0  0
   -5.7810   -1.0159    3.8711 C   0  0
   -3.8818   -1.1421    2.2822 N   0  0
   -6.8750   -0.8517    2.9682 O   0  0
    0.1106    2.0659    1.3452 H   0  0
    0.0001    0.0003   -0.0003 H   0  0
   -1.6156    2.5566    3.0555 H   0  0
   -1.8510   -1.6320    0.3325 H   0  0
   -4.1348    1.4331    4.2713 H   0  0
   -5.6928   -2.0922    4.1047 H   0  0
   -6.0405   -0.5087    4.8175 H   0  0
   -4.1641   -2.0296    1.8894 H   0  0
   -7.6527   -1.2239    3.4103 H   0  0
  1  2  2  0
  1  3  1  0
  2  4  1  0
  3  6  2  0
  4  7  2  0
  5  6  1  0
  5  8  2  0
  6  7  1  0
  7 10  1  0
  8  9  1  0
  8 10  1  0
  9 11  1  0
  1 12  1  0
  2 13  1  0
  3 14  1  0
  4 15  1  0
  5 16  1  0
  9 17  1  0
  9 18  1  0
 10 19  1  0
 11 20  1  0
M  END
> <Name>
BR020445

$$$$
BR020446
  SciTegic05062102053D

 20 21  0  0  0  0            999 V2000
   -1.8022   -0.7245    0.9247 C   0  0
   -0.7671    0.1975    0.7446 C   0  0
   -1.6773    1.6439    2.4698 C   0  0
   -3.8586    0.6897    3.5356 C   0  0
   -2.7304    0.7292    2.6692 C   0  0
   -2.7685   -0.4315    1.8936 C   0  0
   -0.7036    1.3640    1.5041 C   0  0
   -4.5471   -0.4724    3.2738 C   0  0
   -5.7804   -1.0163    3.8718 C   0  0
   -3.8818   -1.1421    2.2822 N   0  0
   -6.8751   -0.8518    2.9698 O   0  0
    0.5890    2.4756    1.2544 Cl  0  0
   -1.8505   -1.6321    0.3324 H   0  0
   -0.0069   -0.0139   -0.0045 H   0  0
   -1.6295    2.5535    3.0626 H   0  0
   -4.1351    1.4333    4.2710 H   0  0
   -5.6920   -2.0927    4.1049 H   0  0
   -6.0394   -0.5095    4.8186 H   0  0
   -4.1640   -2.0298    1.8898 H   0  0
   -7.6524   -1.2244    3.4124 H   0  0
  1  2  1  0
  1  6  2  0
  2  7  2  0
  3  5  2  0
  3  7  1  0
  4  5  1  0
  4  8  2  0
  5  6  1  0
  6 10  1  0
  7 12  1  0
  8  9  1  0
  8 10  1  0
  9 11  1  0
  1 13  1  0
  2 14  1  0
  3 15  1  0
  4 16  1  0
  9 17  1  0
  9 18  1  0
 10 19  1  0
 11 20  1  0
M  END
> <Name>
BR020446

$$$$
BR020447
  SciTegic05062102053D

 38 40  0  0  0  0            999 V2000
   -7.2913    7.0162   -1.8563 C   0  0
   -8.3228    6.2531   -1.3128 C   0  0
   -5.9849    6.5173   -1.9142 C   0  0
   -8.0832    4.9706   -0.8110 C   0  0
   -4.5484    4.4245   -1.3133 C   0  0
   -5.7193    5.2269   -1.4144 C   0  0
   -6.7724    4.4849   -0.8754 C   0  0
   -4.9067    3.2332   -0.7256 C   0  0
   -4.0573   -0.3340    3.9773 C   0  0
   -3.2576    0.9656    3.9704 C   0  0
   -4.7735   -0.5686    2.6504 C   0  0
   -2.2826    1.0227    2.7944 C   0  0
   -3.8043   -0.5184    1.4692 C   0  0
   -2.9508    0.7502    1.4463 C   0  0
   -4.0854    2.0274   -0.3758 C   0  0
   -6.2500    3.2789   -0.4654 N   0  0
   -3.8091    1.9136    1.0788 N   0  3
   -7.5024    8.0110   -2.2394 H   0  0
   -9.3302    6.6607   -1.2779 H   0  0
   -5.1902    7.1224   -2.3410 H   0  0
   -8.8868    4.3776   -0.3875 H   0  0
   -3.5515    4.6922   -1.6371 H   0  0
   -3.3823   -1.1749    4.1790 H   0  0
   -4.7896   -0.3112    4.7923 H   0  0
   -3.9441    1.8195    3.9295 H   0  0
   -2.7002    1.0575    4.9096 H   0  0
   -5.2723   -1.5444    2.6724 H   0  0
   -5.5617    0.1823    2.5205 H   0  0
   -1.7782    1.9965    2.7842 H   0  0
   -1.5004    0.2693    2.9546 H   0  0
   -3.1357   -1.3869    1.5301 H   0  0
   -4.3633   -0.6225    0.5315 H   0  0
   -2.1956    0.6832    0.6560 H   0  0
   -4.5926    1.1031   -0.6729 H   0  0
   -3.1131    2.0513   -0.8798 H   0  0
   -6.7844    2.5370   -0.0344 H   0  0
   -4.6981    1.8454    1.5898 H   0  0
   -3.3582    2.7764    1.4084 H   0  0
  1  2  2  0
  1  3  1  0
  2  4  1  0
  3  6  2  0
  4  7  2  0
  5  6  1  0
  5  8  2  0
  6  7  1  0
  7 16  1  0
  8 15  1  0
  8 16  1  0
  9 10  1  0
  9 11  1  0
 10 12  1  0
 11 13  1  0
 12 14  1  0
 13 14  1  0
 14 17  1  0
 15 17  1  0
  1 18  1  0
  2 19  1  0
  3 20  1  0
  4 21  1  0
  5 22  1  0
  9 23  1  0
  9 24  1  0
 10 25  1  0
 10 26  1  0
 11 27  1  0
 11 28  1  0
 12 29  1  0
 12 30  1  0
 13 31  1  0
 13 32  1  0
 14 33  1  0
 15 34  1  0
 15 35  1  0
 16 36  1  0
 17 37  1  0
 17 38  1  0
M  CHG  1  17   1
M  END
> <Name>
BR020447

$$$$
BR020448
  SciTegic05062102053D

 38 40  0  0  0  0            999 V2000
   -8.0837    4.9696   -0.8138 C   0  0
   -8.3233    6.2518   -1.3161 C   0  0
   -5.9851    6.5167   -1.9158 C   0  0
   -4.5484    4.4245   -1.3133 C   0  0
   -5.7194    5.2265   -1.4155 C   0  0
   -6.7727    4.4842   -0.8771 C   0  0
   -7.2917    7.0152   -1.8590 C   0  0
   -4.9067    3.2332   -0.7256 C   0  0
   -4.0573   -0.3340    3.9773 C   0  0
   -3.2576    0.9656    3.9704 C   0  0
   -4.7735   -0.5686    2.6504 C   0  0
   -2.2826    1.0227    2.7944 C   0  0
   -3.8043   -0.5184    1.4692 C   0  0
   -2.9508    0.7502    1.4463 C   0  0
   -4.0854    2.0274   -0.3758 C   0  0
   -6.2502    3.2786   -0.4664 N   0  0
   -3.8091    1.9136    1.0788 N   0  3
   -7.6267    8.5911   -2.4700 Cl  0  0
   -8.8878    4.3766   -0.3911 H   0  0
   -9.3368    6.6455   -1.2750 H   0  0
   -5.1793    7.1110   -2.3384 H   0  0
   -3.5512    4.6926   -1.6360 H   0  0
   -3.3823   -1.1749    4.1790 H   0  0
   -4.7896   -0.3112    4.7923 H   0  0
   -3.9441    1.8195    3.9295 H   0  0
   -2.7002    1.0575    4.9096 H   0  0
   -5.2723   -1.5444    2.6724 H   0  0
   -5.5617    0.1823    2.5205 H   0  0
   -1.7782    1.9965    2.7842 H   0  0
   -1.5004    0.2693    2.9546 H   0  0
   -3.1357   -1.3869    1.5301 H   0  0
   -4.3633   -0.6225    0.5315 H   0  0
   -2.1956    0.6832    0.6560 H   0  0
   -4.5926    1.1031   -0.6729 H   0  0
   -3.1131    2.0513   -0.8798 H   0  0
   -6.7846    2.5363   -0.0361 H   0  0
   -4.6981    1.8454    1.5898 H   0  0
   -3.3582    2.7764    1.4084 H   0  0
  1  2  1  0
  1  6  2  0
  2  7  2  0
  3  5  2  0
  3  7  1  0
  4  5  1  0
  4  8  2  0
  5  6  1  0
  6 16  1  0
  7 18  1  0
  8 15  1  0
  8 16  1  0
  9 10  1  0
  9 11  1  0
 10 12  1  0
 11 13  1  0
 12 14  1  0
 13 14  1  0
 14 17  1  0
 15 17  1  0
  1 19  1  0
  2 20  1  0
  3 21  1  0
  4 22  1  0
  9 23  1  0
  9 24  1  0
 10 25  1  0
 10 26  1  0
 11 27  1  0
 11 28  1  0
 12 29  1  0
 12 30  1  0
 13 31  1  0
 13 32  1  0
 14 33  1  0
 15 34  1  0
 15 35  1  0
 16 36  1  0
 17 37  1  0
 17 38  1  0
M  CHG  1  17   1
M  END
> <Name>
BR020448

$$$$
BR020449
  SciTegic05062102053D

 35 37  0  0  0  0            999 V2000
   -7.1557   -7.3465    4.5706 C   0  0
   -0.7729    1.2559    1.2627 C   0  0
   -7.6196   -6.6600    3.4485 C   0  0
   -6.6662   -6.6387    5.6684 C   0  0
   -0.2312    0.9085    2.4987 C   0  0
   -2.1251    1.0272    0.9834 C   0  0
   -7.5940   -5.2655    3.4242 C   0  0
   -6.6407   -5.2443    5.6440 C   0  0
   -1.0207    0.3233    3.4928 C   0  0
   -4.3141    0.0712    2.0316 C   0  0
   -2.9407    0.4383    1.9701 C   0  0
   -7.1046   -4.5577    4.5220 C   0  0
   -2.3708    0.1006    3.1995 C   0  0
   -4.5471   -0.4724    3.2738 C   0  0
   -7.0766   -3.0578    4.4964 C   0  0
   -5.7810   -1.0159    3.8711 C   0  0
   -3.3691   -0.4501    3.9711 N   0  0
   -5.8120   -2.5094    3.9482 N   0  3
   -7.1769   -8.4323    4.5899 H   0  0
   -0.1386    1.7090    0.5056 H   0  0
   -8.0018   -7.2109    2.5941 H   0  0
   -6.3060   -7.1729    6.5425 H   0  0
    0.8220    1.0952    2.6941 H   0  0
   -2.5348    1.3033    0.0160 H   0  0
   -7.9574   -4.7390    2.5456 H   0  0
   -6.2575   -4.7011    6.5039 H   0  0
   -0.5980    0.0527    4.4545 H   0  0
   -5.0514    0.1931    1.2493 H   0  0
   -7.8872   -2.6572    3.8783 H   0  0
   -7.1888   -2.6429    5.5039 H   0  0
   -5.9390   -0.6636    4.9063 H   0  0
   -6.6848   -0.7308    3.3032 H   0  0
   -3.2460   -0.7884    4.9157 H   0  0
   -5.0228   -2.8247    4.5237 H   0  0
   -5.6514   -2.8901    3.0086 H   0  0
  1  3  1  0
  1  4  2  0
  2  5  2  0
  2  6  1  0
  3  7  2  0
  4  8  1  0
  5  9  1  0
  6 11  2  0
  7 12  1  0
  8 12  2  0
  9 13  2  0
 10 11  1  0
 10 14  2  0
 11 13  1  0
 12 15  1  0
 13 17  1  0
 14 16  1  0
 14 17  1  0
 15 18  1  0
 16 18  1  0
  1 19  1  0
  2 20  1  0
  3 21  1  0
  4 22  1  0
  5 23  1  0
  6 24  1  0
  7 25  1  0
  8 26  1  0
  9 27  1  0
 10 28  1  0
 15 29  1  0
 15 30  1  0
 16 31  1  0
 16 32  1  0
 17 33  1  0
 18 34  1  0
 18 35  1  0
M  CHG  1  18   1
M  END
> <Name>
BR020449

$$$$
BR020450
  SciTegic05062102053D

 35 37  0  0  0  0            999 V2000
   -7.1515   -7.3472    4.5752 C   0  0
   -7.6162   -6.6615    3.4530 C   0  0
   -6.6621   -6.6385    5.6724 C   0  0
   -7.5914   -5.2671    3.4278 C   0  0
   -6.6373   -5.2441    5.6473 C   0  0
   -1.0218    0.3282    3.4921 C   0  0
   -0.2332    0.9139    2.4976 C   0  0
   -2.1273    1.0290    0.9823 C   0  0
   -4.3149    0.0707    2.0312 C   0  0
   -2.9420    0.4396    1.9694 C   0  0
   -7.1019   -4.5584    4.5250 C   0  0
   -2.3716    0.1035    3.1990 C   0  0
   -0.7753    1.2597    1.2614 C   0  0
   -4.5471   -0.4724    3.2738 C   0  0
   -7.0747   -3.0585    4.4986 C   0  0
   -5.7804   -1.0163    3.8718 C   0  0
   -3.3691   -0.4480    3.9711 N   0  0
   -5.8106   -2.5098    3.9497 N   0  3
    0.2284    1.9816    0.0613 Cl  0  0
   -7.1722   -8.4330    4.5951 H   0  0
   -7.9984   -7.2132    2.5990 H   0  0
   -6.3013   -7.1720    6.5468 H   0  0
   -7.9553   -4.7413    2.5490 H   0  0
   -6.2541   -4.7003    6.5067 H   0  0
   -0.5982    0.0593    4.4539 H   0  0
    0.8187    1.0960    2.7079 H   0  0
   -2.5515    1.2976    0.0184 H   0  0
   -5.0523    0.1907    1.2488 H   0  0
   -7.8857   -2.6587    3.8805 H   0  0
   -7.1868   -2.6431    5.5059 H   0  0
   -5.9383   -0.6636    4.9068 H   0  0
   -6.6847   -0.7320    3.3041 H   0  0
   -3.2458   -0.7852    4.9160 H   0  0
   -5.0211   -2.8244    4.5251 H   0  0
   -5.6501   -2.8909    3.0102 H   0  0
  1  2  1  0
  1  3  2  0
  2  4  2  0
  3  5  1  0
  4 11  1  0
  5 11  2  0
  6  7  1  0
  6 12  2  0
  7 13  2  0
  8 10  2  0
  8 13  1  0
  9 10  1  0
  9 14  2  0
 10 12  1  0
 11 15  1  0
 12 17  1  0
 13 19  1  0
 14 16  1  0
 14 17  1  0
 15 18  1  0
 16 18  1  0
  1 20  1  0
  2 21  1  0
  3 22  1  0
  4 23  1  0
  5 24  1  0
  6 25  1  0
  7 26  1  0
  8 27  1  0
  9 28  1  0
 15 29  1  0
 15 30  1  0
 16 31  1  0
 16 32  1  0
 17 33  1  0
 18 34  1  0
 18 35  1  0
M  CHG  1  18   1
M  END
> <Name>
BR020450

$$$$
BR020451
  SciTegic05062102053D

 24 23  0  0  0  0            999 V2000
    3.1677    1.7988   -1.6689 C   0  0
    1.7968    1.2078   -1.5147 C   0  0
    4.1490    1.2986   -2.6893 C   0  0
   -0.2026   -0.2755   -4.1682 C   0  0
    4.5160    2.5055   -6.1034 C   0  0
    0.0996    0.1759   -2.7552 C   0  0
    4.8362    1.6396   -4.9037 C   0  0
    3.5796    2.7750   -0.9223 N   0  0
    1.2232    1.1936   -0.4441 O   0  0
    4.9366    0.4082   -2.4377 O   0  0
    4.8838    3.1523   -1.2526 O   0  0
    1.4037    0.7621   -2.7223 O   0  0
    3.9679    1.9983   -3.8251 O   0  0
   -0.1827    0.5705   -4.8608 H   0  0
    0.5276   -1.0211   -4.4998 H   0  0
   -1.1879   -0.7506   -4.2191 H   0  0
    3.4811    2.3593   -6.4251 H   0  0
    4.6665    3.5639   -5.8667 H   0  0
    5.1826    2.2685   -6.9393 H   0  0
    0.0782   -0.6749   -2.0677 H   0  0
   -0.6304    0.9213   -2.4259 H   0  0
    5.8725    1.7906   -4.5871 H   0  0
    4.6845    0.5825   -5.1417 H   0  0
    5.0883    2.5355   -1.9755 H   0  0
  1  2  1  0
  1  3  1  0
  1  8  2  0
  2  9  2  0
  2 12  1  0
  3 10  2  0
  3 13  1  0
  4  6  1  0
  5  7  1  0
  6 12  1  0
  7 13  1  0
  8 11  1  0
  4 14  1  0
  4 15  1  0
  4 16  1  0
  5 17  1  0
  5 18  1  0
  5 19  1  0
  6 20  1  0
  6 21  1  0
  7 22  1  0
  7 23  1  0
 11 24  1  0
M  END
> <Name>
BR020451

$$$$
BR020452
  SciTegic05062102053D

 26 25  0  0  0  0            999 V2000
   -1.8384    1.9211   -1.9137 C   0  0
   -0.6788    2.3643   -4.1325 C   0  0
    0.3090   -0.2775    0.0789 C   0  0
   -0.1609    2.7238   -7.7403 C   0  0
   -0.7242    0.8053   -0.1486 C   0  0
    0.2400    2.7417   -6.2806 C   0  0
   -1.9523    1.9676   -3.4213 C   0  0
   -3.0474    2.9046   -3.8144 N   0  3
   -2.4783    2.6229   -1.1415 O   0  0
    0.3815    2.6139   -3.5736 O   0  0
   -0.9253    0.9695   -1.5560 O   0  0
   -0.8937    2.3893   -5.4815 O   0  0
   -0.0263   -1.2308   -0.3392 H   0  0
    1.2629   -0.0043   -0.3841 H   0  0
    0.5007   -0.4091    1.1490 H   0  0
   -0.5025    1.7288   -8.0389 H   0  0
   -0.9632    3.4446   -7.9292 H   0  0
    0.6828    3.0129   -8.3757 H   0  0
   -0.3828    1.7559    0.2719 H   0  0
   -1.6768    0.5303    0.3139 H   0  0
    0.5807    3.7395   -5.9885 H   0  0
    1.0411    2.0204   -6.0935 H   0  0
   -2.2685    0.9761   -3.7643 H   0  0
   -2.6576    3.7816   -4.1652 H   0  0
   -3.6433    3.1130   -3.0105 H   0  0
   -3.6254    2.4897   -4.5481 H   0  0
  1  7  1  0
  1  9  2  0
  1 11  1  0
  2  7  1  0
  2 10  2  0
  2 12  1  0
  3  5  1  0
  4  6  1  0
  5 11  1  0
  6 12  1  0
  7  8  1  0
  3 13  1  0
  3 14  1  0
  3 15  1  0
  4 16  1  0
  4 17  1  0
  4 18  1  0
  5 19  1  0
  5 20  1  0
  6 21  1  0
  6 22  1  0
  7 23  1  0
  8 24  1  0
  8 25  1  0
  8 26  1  0
M  CHG  1   8   1
M  END
> <Name>
BR020452

$$$$
BR020453
  SciTegic05062102053D

 31 30  0  0  0  0            999 V2000
   -3.9650    3.2584   -7.3670 C   0  0
   -3.4861    3.5139   -6.0542 C   0  0
   -3.5439    2.5803   -5.0977 C   0  0
   -1.8384    1.9211   -1.9137 C   0  0
   -0.6788    2.3643   -4.1325 C   0  0
    0.3090   -0.2775    0.0789 C   0  0
    1.9760    0.1532   -5.3477 C   0  0
   -0.7242    0.8053   -0.1486 C   0  0
    1.2944    1.4812   -5.0957 C   0  0
   -1.9523    1.9676   -3.4213 C   0  0
   -4.3549    3.0543   -8.4408 N   0  0
   -3.0474    2.9046   -3.8144 N   0  3
   -2.4783    2.6229   -1.1415 O   0  0
   -0.3567    3.5166   -4.3919 O   0  0
   -0.9253    0.9695   -1.5560 O   0  0
    0.0511    1.2475   -4.4265 O   0  0
   -3.0692    4.4959   -5.8521 H   0  0
   -3.9543    1.5914   -5.2701 H   0  0
   -0.0263   -1.2308   -0.3392 H   0  0
    1.2629   -0.0043   -0.3841 H   0  0
    0.5007   -0.4091    1.1490 H   0  0
    2.1783   -0.3664   -4.4070 H   0  0
    1.3511   -0.4879   -5.9783 H   0  0
    2.9213    0.2997   -5.8807 H   0  0
   -0.3828    1.7559    0.2719 H   0  0
   -1.6768    0.5303    0.3139 H   0  0
    1.0949    1.9955   -6.0405 H   0  0
    1.9196    2.1200   -4.4648 H   0  0
   -2.2685    0.9761   -3.7643 H   0  0
   -2.6913    3.8677   -3.7963 H   0  0
   -3.7973    2.8612   -3.1140 H   0  0
  1  2  1  0
  1 11  3  0
  2  3  2  0
  3 12  1  0
  4 10  1  0
  4 13  2  0
  4 15  1  0
  5 10  1  0
  5 14  2  0
  5 16  1  0
  6  8  1  0
  7  9  1  0
  8 15  1  0
  9 16  1  0
 10 12  1  0
  2 17  1  0
  3 18  1  0
  6 19  1  0
  6 20  1  0
  6 21  1  0
  7 22  1  0
  7 23  1  0
  7 24  1  0
  8 25  1  0
  8 26  1  0
  9 27  1  0
  9 28  1  0
 10 29  1  0
 12 30  1  0
 12 31  1  0
M  CHG  1  12   1
M  END
> <Name>
BR020453

$$$$
BR020454
  SciTegic05062102053D

 16 16  0  0  0  0            999 V2000
    1.5204    0.4727    1.5759 C   0  0
    0.2891    0.0196    1.0414 C   0  0
    1.4575    0.3171    2.9431 C   0  0
   -0.4888   -0.3990    2.0983 C   0  0
   -1.8124   -0.9365    2.0678 C   0  0
   -3.6027   -1.7999    3.4243 C   0  0
    0.2315   -0.2133    3.2493 N   0  0
   -2.4984   -1.1178    1.0353 O   0  0
   -2.2845   -1.2506    3.3234 O   0  0
    2.3607    0.8705    1.0246 H   0  0
    0.0047    0.0020   -0.0018 H   0  0
    2.1717    0.5383    3.7237 H   0  0
   -3.8369   -1.9968    4.4734 H   0  0
   -3.6574   -2.7266    2.8476 H   0  0
   -4.3195   -1.0800    3.0223 H   0  0
   -0.0898   -0.4328    4.1823 H   0  0
  1  2  1  0
  1  3  2  0
  2  4  2  0
  3  7  1  0
  4  5  1  0
  4  7  1  0
  5  8  2  0
  5  9  1  0
  6  9  1  0
  1 10  1  0
  2 11  1  0
  3 12  1  0
  6 13  1  0
  6 14  1  0
  6 15  1  0
  7 16  1  0
M  END
> <Name>
BR020454

$$$$
BR020455
  SciTegic05062102053D

 18 18  0  0  0  0            999 V2000
    1.5204    0.4727    1.5759 C   0  0
    1.4575    0.3171    2.9431 C   0  0
    0.2891    0.0196    1.0414 C   0  0
   -0.4888   -0.3990    2.0983 C   0  0
   -1.8134   -0.9398    2.0837 C   0  0
   -3.5866   -1.7992    3.4624 C   0  0
    0.2315   -0.2133    3.2493 N   0  0
   -0.0942   -0.0085   -0.3132 N   0  3
    0.1508   -1.0331   -1.0056 O   0  5
   -2.5076   -1.1268    1.0591 O   0  0
   -0.6769    0.9911   -0.8133 O   0  0
   -2.2705   -1.2480    3.3456 O   0  0
    2.3650    0.8701    1.0298 H   0  0
    2.1734    0.5358    3.7228 H   0  0
   -3.8099   -1.9914    4.5146 H   0  0
   -3.6453   -2.7289    2.8907 H   0  0
   -4.3088   -1.0826    3.0640 H   0  0
   -0.0894   -0.4333    4.1824 H   0  0
  1  2  2  0
  1  3  1  0
  2  7  1  0
  3  4  2  0
  3  8  1  0
  4  5  1  0
  4  7  1  0
  5 10  2  0
  5 12  1  0
  6 12  1  0
  8  9  1  0
  8 11  2  0
  1 13  1  0
  2 14  1  0
  6 15  1  0
  6 16  1  0
  6 17  1  0
  7 18  1  0
M  CHG  2   8   1   9  -1
M  END
> <Name>
BR020455

$$$$
BR020456
  SciTegic05062102053D

 18 18  0  0  0  0            999 V2000
    0.2891    0.0196    1.0414 C   0  0
    1.4575    0.3171    2.9431 C   0  0
    1.5204    0.4727    1.5759 C   0  0
   -0.4888   -0.3990    2.0983 C   0  0
   -1.8115   -0.9384    2.0677 C   0  0
   -3.6013   -1.8030    3.4244 C   0  0
    0.2315   -0.2133    3.2493 N   0  0
    2.6267    0.9916    0.8797 N   0  3
    2.5792    1.0916   -0.3769 O   0  5
   -2.4969   -1.1219    1.0352 O   0  0
    3.6519    1.3507    1.5209 O   0  0
   -2.2839   -1.2519    3.3235 O   0  0
    0.0003    0.0005   -0.0011 H   0  0
    2.1705    0.5337    3.7270 H   0  0
   -3.8357   -1.9991    4.4735 H   0  0
   -3.6544   -2.7304    2.8486 H   0  0
   -4.3190   -1.0846    3.0212 H   0  0
   -0.0888   -0.4344    4.1823 H   0  0
  1  3  1  0
  1  4  2  0
  2  3  2  0
  2  7  1  0
  3  8  1  0
  4  5  1  0
  4  7  1  0
  5 10  2  0
  5 12  1  0
  6 12  1  0
  8  9  1  0
  8 11  2  0
  1 13  1  0
  2 14  1  0
  6 15  1  0
  6 16  1  0
  6 17  1  0
  7 18  1  0
M  CHG  2   8   1   9  -1
M  END
> <Name>
BR020456

$$$$
BR020457
  SciTegic05062102053D

 18 18  0  0  0  0            999 V2000
    1.5204    0.4727    1.5759 C   0  0
    0.2891    0.0196    1.0414 C   0  0
    1.4575    0.3171    2.9431 C   0  0
   -0.4888   -0.3990    2.0983 C   0  0
    2.4528    0.6308    3.9187 C   0  0
    2.9560    0.6154    6.2721 C   0  0
    0.2315   -0.2133    3.2493 N   0  0
   -1.7829   -0.9329    2.1246 N   0  3
   -2.4184   -1.0924    1.0430 O   0  5
    3.5820    1.1152    3.6740 O   0  0
   -2.3078   -1.2526    3.2297 O   0  0
    2.0440    0.3431    5.2027 O   0  0
    2.3602    0.8679    1.0209 H   0  0
    0.0054    0.0021   -0.0019 H   0  0
    2.4961    0.3381    7.2238 H   0  0
    3.2099    1.6784    6.2740 H   0  0
    3.8641    0.0263    6.1236 H   0  0
   -0.0901   -0.4324    4.1827 H   0  0
  1  2  1  0
  1  3  2  0
  2  4  2  0
  3  5  1  0
  3  7  1  0
  4  7  1  0
  4  8  1  0
  5 10  2  0
  5 12  1  0
  6 12  1  0
  8  9  1  0
  8 11  2  0
  1 13  1  0
  2 14  1  0
  6 15  1  0
  6 16  1  0
  6 17  1  0
  7 18  1  0
M  CHG  2   8   1   9  -1
M  END
> <Name>
BR020457

$$$$
BR020458
  SciTegic05062102053D

 15 15  0  0  0  0            999 V2000
    1.5204    0.4727    1.5759 C   0  0
    0.2891    0.0196    1.0414 C   0  0
    1.4575    0.3171    2.9431 C   0  0
   -0.4888   -0.3990    2.0983 C   0  0
   -1.8124   -0.9365    2.0678 C   0  0
   -2.5834   -1.3731    3.3430 C   0  0
    0.2315   -0.2133    3.2493 N   0  0
   -2.3668   -1.1023    0.9505 O   0  0
   -2.7892   -0.0067    4.4555 Cl  0  0
   -4.2133   -1.9579    2.8826 Cl  0  0
   -1.6909   -2.7067    4.1033 Cl  0  0
    2.3607    0.8705    1.0246 H   0  0
    0.0047    0.0020   -0.0018 H   0  0
    2.1717    0.5383    3.7237 H   0  0
   -0.0898   -0.4328    4.1823 H   0  0
  1  2  1  0
  1  3  2  0
  2  4  2  0
  3  7  1  0
  4  5  1  0
  4  7  1  0
  5  6  1  0
  5  8  2  0
  6  9  1  0
  6 10  1  0
  6 11  1  0
  1 12  1  0
  2 13  1  0
  3 14  1  0
  7 15  1  0
M  END
> <Name>
BR020458

$$$$
